*
*
*
*                       LINUX           Wed May  5 21:29:01 2021
*
*
*
*  PROGRAM  advgen
*
*  Name           : advgen - Quantus - (64-bit)
*  Version        : 20.1.2-p025
*  Build Date     : Thu Sep 3 13:54:09 PDT 2020
*
*  HSPICE LIBRARY
*
*!LENGTH_UNITS METERS
*
*
*

*
.SUBCKT dff_dynamic_reset vdd! gnd! !CLK !Set CLK D R Set Q
*
*
*  caps2d version: 10
*
*
*       TRANSISTOR CARDS
*
*
MI1/avD1_1	Q#1	!Set#4	R#1	gnd!#1	nmos1v#20ivpcell#20gpdk090
+ L=1e-07	W=3e-07
+ AD=4.8e-14	AS=8.4e-14	PD=6.2e-07	PS=1.16e-06
+ simW=3e-07 fw=3e-07
MI1/avD1_2	avC10#16	Set#3	Q#1	gnd!#1
+ nmos1v#20ivpcell#20gpdk090	L=1e-07	W=3e-07
+ AD=8.4e-14	AS=4.8e-14	PD=1.16e-06	PS=6.2e-07	simW=3e-07 fw=3e-07
MI0/avD1_1	I0/avC10	D#4	gnd!#9	gnd!#1
+ nmos1v#20ivpcell#20gpdk090	L=1e-07	W=2.4e-07
+ AD=1.44e-14	AS=6.72e-14	PD=3.6e-07	PS=1.04e-06	simW=2.4e-07 fw=2.4e-07
MI0/avD1_2	I0/avC7#6	!CLK#5	I0/avC10	gnd!#1
+ nmos1v#20ivpcell#20gpdk090	L=1e-07	W=2.4e-07
+ AD=6.72e-14	AS=1.44e-14	PD=1.04e-06	PS=3.6e-07	simW=2.4e-07 fw=2.4e-07
MI0/avD1_3	I0/avC8#5	I0/avC7	gnd!	gnd!#1
+ nmos1v#20ivpcell#20gpdk090	L=1e-07	W=4.2e-07
+ AD=6.72e-14	AS=1.176e-13	PD=7.4e-07	PS=1.4e-06	M=2	simW=4.2e-07 fw=4.2e-07
MI0/avD1_5	avC10#6	CLK#11	I0/avC8	gnd!#1
+ nmos1v#20ivpcell#20gpdk090	L=1e-07	W=4.2e-07
+ AD=6.72e-14	AS=1.176e-13	PD=7.4e-07	PS=1.4e-06	M=2	simW=4.2e-07 fw=4.2e-07
MI1/avD7_1	Q#4	!Set#2	avC10#11	vdd!#1
+ pmos1v#20ivpcell#20gpdk090	L=1e-07	W=6e-07
+ AD=9.6e-14	AS=1.68e-13	PD=9.2e-07	PS=1.76e-06	simW=6e-07 fw=6e-07
MI1/avD7_2	R#6	Set#4	Q#4	vdd!#1	pmos1v#20ivpcell#20gpdk090
+ L=1e-07	W=6e-07
+ AD=1.68e-13	AS=9.6e-14	PD=1.76e-06	PS=9.2e-07
+ simW=6e-07 fw=6e-07
MI0/avD7_1	I0/avC11	D#1	vdd!#9	vdd!#1
+ pmos1v#20ivpcell#20gpdk090	L=1e-07	W=4.8e-07
+ AD=2.88e-14	AS=1.344e-13	PD=6e-07	PS=1.52e-06	simW=4.8e-07 fw=4.8e-07
MI0/avD7_2	I0/avC7#4	CLK#6	I0/avC11	vdd!#1
+ pmos1v#20ivpcell#20gpdk090	L=1e-07	W=4.8e-07
+ AD=1.344e-13	AS=2.88e-14	PD=1.52e-06	PS=6e-07	simW=4.8e-07 fw=4.8e-07
MI0/avD7_5	avC10#3	!CLK#8	I0/avC9#5	vdd!#1
+ pmos1v#20ivpcell#20gpdk090	L=1e-07	W=8.4e-07
+ AD=1.344e-13	AS=2.352e-13	PD=1.16e-06	PS=2.24e-06	M=2	simW=8.4e-07 fw=8.4e-07
MI0/avD7_3	I0/avC9#2	I0/avC7	vdd!	vdd!#1
+ pmos1v#20ivpcell#20gpdk090	L=1e-07	W=8.4e-07
+ AD=1.344e-13	AS=2.352e-13	PD=1.16e-06	PS=2.24e-06	M=2	simW=8.4e-07 fw=8.4e-07
*
*
*       RESISTOR AND CAP/DIODE CARDS
*
Rg1	CLK#10	CLK#7	    1.1140	$mt3	$X=2.203 $Y=1.555
Rg2	R#5	R#4	    1.5520	$mt3	$X=4.14 $Y=0.9805
Rg4	R#9	R#10	    0.3524	$mt3	$X=4.98 $Y=1.505
Rg3	avC10#14	avC10#15	    1.9117	$mt3
+ $X=4.68 $Y=1.315
Rh1	CLK#1	CLK#7	    2.8000	$mt2	$X=0.81 $Y=1.555
Rh4	CLK#9	CLK#10	    1.5055	$mt2	$X=3.5975 $Y=1.4105
Rh8	R#3	R#4	    1.4000	$mt2	$X=4.14 $Y=0.79
Rh10	R#9	R#8	    0.7000	$mt2	$X=4.98 $Y=2.015
Rh11	R#10	R#5	    1.7531	$mt2	$X=4.56 $Y=1.165
Rh2	!CLK#7	!CLK#3	    2.3093	$mt2	$X=1.7725 $Y=1.27
Rh7	avC10#13	avC10#2	    1.7660	$mt2
+ $X=3.635 $Y=2.245
Rh9	avC10#9	avC10#14	    3.0152	$mt2
+ $X=4.44 $Y=1.925
Rh12	avC10#18	avC10#15	    0.1200	$mt2
+ $X=4.8305 $Y=0.71
Rh3	I0/avC9#8	I0/avC9#4	    2.9790	$mt2
+ $X=2.3105 $Y=2.3375
Ri80	gnd!#2	gnd!	    0.7933	$mt1	$X=2.62 $Y=0.27
Ri85	gnd!#10	gnd!	    0.3533	$mt1	$X=0.26 $Y=0.5375
Ri87	gnd!#2	gnd!#1	   15.0000	$mt1	$X=0.24 $Y=0.24
Ri90	gnd!#10	gnd!#9	   15.0000	$mt1	$X=0.26 $Y=0.835
Ri55	!Set#1	!Set	   10.0000	$mt1	$X=4.18 $Y=1.4
Ri3	CLK#1	CLK	1.882e-02	$mt1	$X=0.81 $Y=1.635
Ri4	CLK#2	CLK#1	6.452e-03	$mt1	$X=0.81 $Y=1.555
Ri5	CLK#3	CLK	6.452e-03	$mt1	$X=0.81 $Y=1.635
Ri6	CLK#3	CLK#2	1.882e-02	$mt1	$X=0.835 $Y=1.595
Ri7	CLK#4	CLK#5	6.452e-03	$mt1	$X=0.86 $Y=1.675
Ri8	CLK#4	CLK#3	9.412e-03	$mt1	$X=0.835 $Y=1.655
Ri41	CLK#9	CLK#8	   11.4000	$mt1	$X=3.595 $Y=1.265
Ri53	R	R#3	    1.4000	$mt1	$X=4.14 $Y=0.79
Ri54	R#1	R	   15.0000	$mt1	$X=4.14 $Y=0.79
Ri62	R#6	R#7	    7.5000	$mt1	$X=4.98 $Y=2.015
Ri63	R#7	R#8	    0.7000	$mt1	$X=4.98 $Y=2.015
Ri56	Q	Q#2	    0.4533	$mt1	$X=4.56 $Y=1.1755
Ri58	Q	Q#5	    0.3633	$mt1	$X=4.56 $Y=1.622
Ri60	Q#1	Q#2	   15.0000	$mt1	$X=4.56 $Y=0.79
Ri61	Q#4	Q#5	    7.5000	$mt1	$X=4.56 $Y=2.015
Ri30	I0/avC8#6	I0/avC8	    0.9970	$mt1
+ $X=2.78 $Y=1.015
Ri33	I0/avC8#6	I0/avC8#5	   15.0000	$mt1
+ $X=1.84 $Y=0.745
Ri68	vdd!#1	vdd!	   15.0733	$mt1	$X=4.55 $Y=2.94
Ri73	vdd!#8	vdd!	7.762e-02	$mt1	$X=0.32 $Y=3.07
Ri74	vdd!#10	vdd!#8	    0.4867	$mt1	$X=0.26 $Y=2.605
Ri78	vdd!#8	vdd!#1	   15.0000	$mt1	$X=0.32 $Y=2.94
Ri79	vdd!#10	vdd!#9	   15.0000	$mt1	$X=0.26 $Y=2.15
Ri9	!CLK#1	!CLK	8.163e-03	$mt1	$X=0.8225 $Y=1.1935
Ri10	!CLK#1	!CLK#2	8.163e-03	$mt1	$X=0.86 $Y=1.19
Ri11	!CLK#4	!CLK#3	8.163e-03	$mt1	$X=0.81 $Y=1.245
Ri12	!CLK#4	!CLK#1	1.294e-02	$mt1	$X=0.835 $Y=1.2175
Ri27	!CLK#7	!CLK#6	   11.4000	$mt1	$X=2.685 $Y=1.68
Ri34	avC10	avC10#2	2.615e-02	$mt1	$X=3.2 $Y=2.317
Ri36	avC10	avC10#5	    0.6200	$mt1	$X=3.2 $Y=1.6855
Ri37	avC10#7	avC10#5	    0.4367	$mt1	$X=3.2 $Y=1.148
Ri39	avC10	avC10#3	    5.0000	$mt1	$X=3.2 $Y=2.33
Ri40	avC10#7	avC10#6	   15.0000	$mt1	$X=3.2 $Y=0.745
Ri47	avC10#10	avC10#9	4.800e-02	$mt1
+ $X=4.14 $Y=2.015
Ri49	avC10#10	avC10#13	    1.4723	$mt1
+ $X=4.1 $Y=2.0175
Ri50	avC10#10	avC10#11	    7.5000	$mt1
+ $X=4.14 $Y=2.015
Ri66	avC10#17	avC10#16	   15.0000	$mt1	$X=4.98 $Y=0.79
Ri67	avC10#17	avC10#18	    1.4256	$mt1	$X=4.98 $Y=0.79
Ri14	I0/avC9	I0/avC9#4	2.667e-03	$mt1
+ $X=1.8525 $Y=2.33
Ri15	I0/avC9	I0/avC9#2	    5.0000	$mt1	$X=1.84 $Y=2.33
Ri24	I0/avC9#5	I0/avC9#8	2.667e-03	$mt1
+ $X=2.7675 $Y=2.33
Ri16	I0/avC7#2	I0/avC7	    5.4073	$mt1
+ $X=1.4405 $Y=1.4
Ri17	I0/avC7#2	I0/avC7#3	    0.5283	$mt1
+ $X=1.18 $Y=1.685
Ri19	I0/avC7#7	I0/avC7#2	    0.4750	$mt1
+ $X=1.18 $Y=1.1475
Ri21	I0/avC7#3	I0/avC7#4	   15.0000	$mt1	$X=0.9 $Y=2.15
Ri22	I0/avC7#7	I0/avC7#6	   15.0000	$mt1	$X=0.9 $Y=0.835
Rj16	!Set#2	!Set#3	   30.5688	$poly	$X=4.35 $Y=1.608
Rj17	!Set#3	!Set#1	    3.3194	$poly	$X=4.29 $Y=1.4
Rj18	!Set#3	!Set#4	   45.0688	$poly	$X=4.35 $Y=1.12
Rj4	CLK#5	CLK#6	   33.2297	$poly	$X=0.69 $Y=1.8425
Rj15	CLK#11	CLK#8	   11.2198	$poly	$X=3.4775 $Y=1.185
Rj1	D#1	D#2	   50.0688	$poly	$X=0.47 $Y=1.7055
Rj2	D#2	D	   11.0694	$poly	$X=0.47 $Y=1.4
Rj3	D#2	D#4	   43.5688	$poly	$X=0.47 $Y=1.1275
Rj19	Set	Set#2	   13.3194	$poly	$X=4.94 $Y=1.4
Rj20	Set#2	Set#3	   45.0688	$poly	$X=4.77 $Y=1.12
Rj21	Set#2	Set#4	   30.5688	$poly	$X=4.77 $Y=1.6075
Rj5	!CLK#2	!CLK#5	   33.2297	$poly	$X=0.69 $Y=1.0225
Rj11	!CLK#8	!CLK#6	   22.6608	$poly	$X=2.8725 $Y=1.68
*
*       CAPACITOR CARDS
*
*
C1	CLK#7	!CLK#3	3.31536e-17	$X=1.411 $Y=1.3915
C2	D#4	gnd!#1	2.4754e-17	$X=0.4695 $Y=0.8305
C3	!CLK#7	avC10#13	9.18753e-19	$X=3.436 $Y=1.9075
C4	!CLK#3	gnd!#1	7.67382e-18	$X=1.404 $Y=1.2695
C5	R	!Set	7.59803e-18	$X=4.1605 $Y=1.1115
C6	!Set	Q	2.49729e-17	$X=4.3975 $Y=1.3985
C7	I0/avC7#3	D#1	3.55681e-18	$X=0.722 $Y=2.063
C8	!CLK#3	I0/avC7#2	1.29813e-17	$X=1.264 $Y=1.36
C9	avC10#5	CLK#9	2.06357e-17	$X=3.3405 $Y=1.358
C10	avC10#9	Q#4	6.97297e-19	$X=4.243 $Y=1.9465
C11	Q	Set	2.40061e-17	$X=4.721 $Y=1.3985
C12	CLK#7	I0/avC9#4	9.59887e-18	$X=1.662 $Y=1.915
C13	!CLK#5	gnd!#1	8.87345e-18	$X=0.6895 $Y=0.783
C14	Set#2	gnd!#1	2.02324e-17	$X=4.769 $Y=1.363
C15	I0/avC9#8	avC10#13	1.35573e-18	$X=3.461 $Y=2.2155
C16	CLK#1	!CLK#4	2.86902e-18	$X=0.8095 $Y=1.3535
C17	R#5	!Set#1	1.46768e-18	$X=4.257 $Y=1.2715
C18	avC10#2	CLK#9	1.16179e-18	$X=3.5375 $Y=1.824
C19	CLK#7	I0/avC7#3	1.9759e-18	$X=1.16 $Y=1.838
C20	avC10#15	Q#1	4.40469e-19	$X=4.608 $Y=0.807
C21	CLK#10	I0/avC9#4	1.63713e-18	$X=2.6085 $Y=1.943
C22	CLK#10	!Set	3.78744e-18	$X=3.992 $Y=1.431
C23	CLK#1	vdd!#1	6.4143e-18	$X=0.828 $Y=1.5675
C24	R#5	!Set	1.01491e-17	$X=4.1645 $Y=1.309
C25	CLK#7	!CLK#7	1.02144e-17	$X=1.9855 $Y=1.5625
C26	I0/avC7#3	CLK#6	1.04332e-17	$X=0.831 $Y=2.107
C27	avC10#14	!Set	4.85664e-19	$X=4.3325 $Y=1.5235
C28	I0/avC9#4	gnd!#1	2.76761e-18	$X=1.9415 $Y=2.333
C29	CLK#1	I0/avC7#2	4.94875e-18	$X=0.9685 $Y=1.4945
C30	avC10#5	!CLK#6	1.73674e-18	$X=2.9185 $Y=1.5595
C31	CLK#10	!CLK#7	3.51574e-17	$X=2.955 $Y=1.5615
C32	Q	!Set#2	3.1242e-19	$X=4.4805 $Y=1.6435
C33	!CLK#2	CLK#5	9.66966e-18	$X=0.8495 $Y=1.3835
C34	Q	Set#4	2.95538e-19	$X=4.638 $Y=1.643
C35	R	!Set#4	6.17155e-18	$X=4.2545 $Y=0.7895
C36	R	Set#3	1.36269e-18	$X=4.4855 $Y=0.7895
C37	Set#2	vdd!#1	1.55145e-17	$X=4.7385 $Y=1.381
C38	CLK#10	I0/avC9#8	8.76637e-18	$X=2.98 $Y=1.945
C39	CLK#9	!Set	9.34173e-18	$X=3.9555 $Y=1.3435
C40	CLK#1	I0/avC7#3	4.12322e-18	$X=0.9075 $Y=1.7315
C41	!Set	avC10#13	1.21745e-17	$X=4.1195 $Y=1.609
C42	R#3	!Set	8.08345e-19	$X=4.1605 $Y=1.1115
C43	avC10#9	!Set	4.08094e-18	$X=4.158 $Y=1.6795
C44	avC10#15	R	1.10297e-18	$X=4.3285 $Y=0.805
C45	!Set	gnd!#1	2.76536e-18	$X=4.179 $Y=1.3995
C46	!Set	vdd!#1	1.3297e-18	$X=4.162 $Y=1.4125
C47	!CLK#4	CLK#3	2.18872e-17	$X=0.809 $Y=1.378
C48	D#1	CLK#6	4.15324e-17	$X=0.588 $Y=2.171
C49	R#3	!Set#4	5.06719e-19	$X=4.2545 $Y=0.7895
C50	I0/avC7#3	vdd!#1	1.1007e-17	$X=1.0605 $Y=1.9805
C51	!CLK#7	gnd!#1	8.82757e-18	$X=2.635 $Y=1.572
C52	CLK#1	I0/avC7#4	7.68184e-19	$X=0.8355 $Y=1.778
C53	avC10#15	Set	8.31621e-19	$X=4.857 $Y=1.2175
C54	CLK#10	avC10#2	1.75035e-17	$X=3.444 $Y=2.079
C55	avC10#14	Set	5.87178e-19	$X=4.8605 $Y=1.5235
C56	R#10	Set	1.15648e-17	$X=4.9055 $Y=1.3405
C57	R#5	Q	3.5568e-18	$X=4.4325 $Y=1.324
C58	avC10#13	CLK#9	9.96835e-19	$X=3.742 $Y=1.598
C59	R	!Set#1	2.66469e-18	$X=4.2345 $Y=1.0505
C60	avC10#15	Q	8.66447e-19	$X=4.592 $Y=1.251
C61	I0/avC9#4	I0/avC7#3	1.88854e-18	$X=1.297 $Y=2.073
C62	avC10#14	Q	2.60921e-18	$X=4.5895 $Y=1.4985
C63	!CLK#7	vdd!#1	1.1102e-17	$X=2.629 $Y=1.6135
C64	avC10#18	!Set#4	2.33651e-18	$X=4.5645 $Y=0.7705
C65	R#10	Q	1.77255e-18	$X=4.631 $Y=1.3505
C66	I0/avC9#8	gnd!#1	2.3224e-18	$X=2.6765 $Y=2.345
C67	Set	!Set#1	8.29538e-19	$X=4.6875 $Y=1.384
C68	CLK#3	vdd!#1	1.12221e-18	$X=0.823 $Y=1.5765
C69	!CLK#1	gnd!#1	4.94801e-18	$X=0.8095 $Y=1.1455
C70	!Set#4	gnd!#1	2.1554e-17	$X=4.349 $Y=0.7895
C71	avC10#5	!Set#1	1.47208e-18	$X=3.659 $Y=1.395
C72	avC10#18	Set#3	1.04526e-17	$X=4.84 $Y=0.7705
C73	I0/avC9#8	vdd!#1	6.52689e-18	$X=2.6685 $Y=2.359
C74	avC10#14	!CLK#7	1.76501e-18	$X=3.907 $Y=1.718
C75	Q	!Set#1	7.54365e-18	$X=4.4845 $Y=1.3855
C76	CLK#10	avC10#13	4.92125e-18	$X=3.696 $Y=1.9015
C77	avC10#5	!Set	2.53675e-18	$X=3.662 $Y=1.408
C78	R	gnd!#1	3.04252e-18	$X=4.139 $Y=0.7895
C79	Set#3	gnd!#1	2.97172e-17	$X=4.769 $Y=0.7895
C80	CLK#9	R#5	1.72246e-17	$X=3.8585 $Y=1.206
C81	CLK#3	!CLK#2	3.21933e-18	$X=0.8315 $Y=1.398
C82	avC10#18	Set	1.24324e-17	$X=4.952 $Y=1.157
C83	Set	R#8	2.01548e-17	$X=4.9505 $Y=1.575
C84	!Set#2	Set#4	1.34912e-17	$X=4.559 $Y=2.0505
C85	Set	gnd!#1	7.15347e-18	$X=4.939 $Y=1.3995
C86	CLK#3	I0/avC7#2	1.86401e-17	$X=0.941 $Y=1.513
C87	CLK#10	avC10#5	7.30416e-18	$X=3.2145 $Y=1.4415
C88	Set	vdd!#1	1.6013e-17	$X=4.9145 $Y=1.4125
C89	CLK#7	gnd!#1	4.67592e-18	$X=1.4205 $Y=1.5545
C90	!CLK#7	I0/avC7#3	8.14618e-19	$X=1.4975 $Y=1.855
C91	!Set#1	Set#2	1.16574e-17	$X=4.5595 $Y=1.363
C92	R#5	avC10#13	3.95893e-18	$X=4.07 $Y=1.5525
C93	CLK#7	vdd!#1	8.09937e-18	$X=1.4535 $Y=1.5915
C94	!CLK#7	I0/avC7#2	1.78129e-18	$X=1.5945 $Y=1.46
C95	!Set	Set#2	1.10442e-18	$X=4.4315 $Y=1.3835
C96	I0/avC7#2	gnd!#1	3.45539e-18	$X=1.1795 $Y=1.4155
C97	CLK#10	gnd!#1	2.24861e-18	$X=3.2795 $Y=1.551
C98	D#4	!CLK#5	3.0322e-17	$X=0.589 $Y=0.8045
C99	CLK#9	gnd!#1	5.45817e-18	$X=3.595 $Y=1.2545
C100	R#5	avC10#9	1.06864e-17	$X=4.1395 $Y=1.665
C101	CLK#10	vdd!#1	4.75993e-18	$X=3.2495 $Y=1.594
C102	R#3	avC10#15	1.17414e-17	$X=4.3285 $Y=0.805
C103	R#4	gnd!#1	5.30666e-18	$X=4.139 $Y=0.8095
C104	avC10#13	R#8	5.9769e-18	$X=4.474 $Y=2.073
C105	D#1	CLK#5	1.20675e-17	$X=0.6225 $Y=1.953
C106	R#3	avC10#18	7.99448e-19	$X=4.465 $Y=0.768
C107	I0/avC7#2	!CLK#2	4.22935e-18	$X=0.9895 $Y=1.281
C108	I0/avC7#2	vdd!#1	6.71803e-18	$X=1.1985 $Y=1.4345
C109	R#5	gnd!#1	4.16989e-18	$X=4.139 $Y=1.1545
C110	!CLK#4	CLK#5	2.36104e-18	$X=0.815 $Y=1.365
C111	!CLK#1	I0/avC7#2	1.15442e-17	$X=0.924 $Y=1.229
C112	R#9	avC10#13	5.40461e-18	$X=4.5765 $Y=1.9985
C113	avC10#15	gnd!#1	1.36153e-17	$X=4.684 $Y=0.835
C114	avC10#13	vdd!#1	2.15396e-17	$X=3.9325 $Y=2.146
C115	R#3	gnd!#1	3.98551e-18	$X=4.139 $Y=0.7895
C116	CLK#5	I0/avC7#2	1.24887e-17	$X=1.0155 $Y=1.5495
C117	avC10#14	R#8	3.5792e-17	$X=4.8235 $Y=1.906
C118	I0/avC9#8	!CLK#6	3.13484e-18	$X=2.683 $Y=1.7875
C119	avC10#5	gnd!#1	2.40543e-18	$X=3.199 $Y=1.416
C120	!CLK#3	CLK#1	4.97998e-17	$X=0.996 $Y=1.4645
C121	avC10#18	R#10	1.92232e-17	$X=4.911 $Y=0.953
C122	avC10#14	Set#4	1.26561e-18	$X=4.7385 $Y=1.965
C123	avC10	!Set#2	9.44858e-19	$X=4.085 $Y=2.0935
C124	!CLK#3	I0/avC9#4	1.65256e-18	$X=1.616 $Y=1.6885
C125	avC10#14	vdd!#1	2.02683e-18	$X=4.6315 $Y=1.828
C126	!CLK#4	I0/avC7#2	1.25486e-17	$X=0.899 $Y=1.304
C127	R#10	Set#2	2.52122e-18	$X=4.7945 $Y=1.306
C128	R#10	gnd!#1	2.45631e-17	$X=4.8345 $Y=1.217
C129	avC10#9	vdd!#1	2.34539e-18	$X=4.1245 $Y=1.931
C130	avC10#18	gnd!#1	2.8546e-17	$X=4.974 $Y=0.7345
C131	avC10#5	vdd!#1	3.10073e-18	$X=3.1925 $Y=1.4275
C132	!Set#4	Set#3	1.2701e-17	$X=4.5595 $Y=0.7895
C133	R#10	vdd!#1	2.88918e-18	$X=4.785 $Y=1.248
C134	D#4	!CLK#2	6.73423e-18	$X=0.643 $Y=0.9905
C135	R#9	vdd!#1	2.04139e-17	$X=4.938 $Y=1.923
C136	D#1	vdd!#1	2.39373e-17	$X=0.493 $Y=2.144
C137	!CLK#7	avC10#5	1.52695e-17	$X=3.0905 $Y=1.446
C138	CLK#7	I0/avC7#2	3.07376e-18	$X=1.255 $Y=1.459
C139	R#5	!Set#4	1.64224e-18	$X=4.276 $Y=0.9165
C140	CLK#5	I0/avC7#3	3.02508e-17	$X=0.9415 $Y=1.84
C141	!CLK#7	I0/avC9#4	5.45471e-18	$X=2.29 $Y=1.951
C142	CLK#9	!Set#1	2.46551e-18	$X=4.0065 $Y=1.3135
C143	!CLK#7	avC10	1.0364e-17	$X=2.9035 $Y=1.888
C144	!CLK#2	gnd!#1	1.75652e-17	$X=0.8595 $Y=1.1895
C145	CLK#6	vdd!#1	9.32858e-18	$X=0.7075 $Y=2.2055
C146	avC10#15	Set#3	3.1908e-18	$X=4.7435 $Y=0.803
C147	R#10	Set#3	7.48783e-19	$X=4.789 $Y=0.919
C148	avC10#13	!Set#1	2.98616e-18	$X=4.2165 $Y=1.632
C149	CLK#5	vdd!#1	2.3646e-17	$X=0.861 $Y=1.715
C150	I0/avC9#8	avC10	4.01452e-17	$X=2.929 $Y=2.2925
C151	CLK#10	avC10#14	1.10466e-17	$X=4.156 $Y=1.711
C152	R#4	avC10#15	1.74144e-17	$X=4.2765 $Y=0.8155
C153	!CLK#7	I0/avC9#8	3.45684e-17	$X=2.6555 $Y=1.953
C154	R#3	!Set#1	3.20802e-19	$X=4.2345 $Y=1.0505
C155	R#5	avC10#15	1.5543e-17	$X=4.384 $Y=1.0105
C156	avC10#14	Q#4	1.93313e-18	$X=4.6255 $Y=1.9025
C157	R#5	avC10#14	2.43082e-18	$X=4.3725 $Y=1.4345
C158	Q	Set#2	7.06254e-18	$X=4.634 $Y=1.3855
C159	avC10#13	!Set#2	1.28879e-17	$X=4.224 $Y=2.0775
C160	avC10#18	Set#2	2.69024e-18	$X=4.858 $Y=1.09
C161	!CLK#3	CLK#3	2.79211e-18	$X=0.959 $Y=1.492
C162	!CLK#6	vdd!#1	2.32635e-17	$X=2.6825 $Y=1.687
C163	avC10#9	!Set#2	1.46661e-18	$X=4.2265 $Y=1.9765
C164	avC10#13	Set#4	2.65072e-18	$X=4.505 $Y=2.077
C165	avC10#15	R#10	5.50099e-17	$X=4.7595 $Y=1.0255
C166	R#8	!Set#2	2.01325e-18	$X=4.557 $Y=2.0385
C167	I0/avC9#8	avC10#2	1.22501e-17	$X=3.302 $Y=2.268
C168	R#10	avC10#14	1.92126e-17	$X=4.7615 $Y=1.5005
C169	!Set#1	gnd!#1	1.57623e-17	$X=4.349 $Y=1.3635
C170	!Set#2	vdd!#1	1.17138e-17	$X=4.326 $Y=2.059
C171	!CLK#7	CLK#9	7.19797e-18	$X=3.3065 $Y=1.3495
C172	avC10#14	R#9	5.76201e-17	$X=4.854 $Y=1.8665
C173	R#8	Set#4	1.37698e-17	$X=4.8385 $Y=2.0385
C174	R#8	Set#2	3.78721e-18	$X=4.8425 $Y=1.59
C175	!Set#1	vdd!#1	1.13982e-17	$X=4.324 $Y=1.3815
C176	!CLK#1	D#4	2.44398e-18	$X=0.6565 $Y=1.0035
C177	Set#4	vdd!#1	2.79935e-17	$X=4.741 $Y=2.0585
C178	CLK#10	!Set#1	7.66346e-19	$X=4.07 $Y=1.412
C179	I0/avC7#2	vdd!	3.10019e-18	$X=1.198 $Y=1.447
C180	R#5	Q#2	2.68044e-18	$X=4.4155 $Y=0.9915
C181	R#5	avC10#7	2.0394e-18	$X=3.55 $Y=0.9575
C182	Q#2	avC10#18	1.50125e-17	$X=4.6995 $Y=0.8485
C183	I0/avC8	avC10#5	2.78236e-18	$X=3.1985 $Y=1.396
C184	D	vdd!#10	1.27471e-17	$X=0.3065 $Y=1.9855
C185	I0/avC9#5	gnd!#1	1.72991e-17	$X=3.2585 $Y=2.6465
C186	!CLK#7	I0/avC9#5	2.03012e-18	$X=2.736 $Y=1.7455
C187	I0/avC8	CLK#11	3.85446e-17	$X=3.2475 $Y=0.8465
C188	!CLK#7	I0/avC7	1.81039e-17	$X=2.5595 $Y=1.5635
C189	R#4	I0/avC8	9.73701e-18	$X=4.117 $Y=0.8075
C190	CLK#6	I0/avC7	1.98617e-18	$X=0.7205 $Y=2.1805
C191	I0/avC8	!CLK#6	4.70177e-18	$X=2.6965 $Y=1.6565
C192	I0/avC7	gnd!#1	5.77822e-17	$X=1.8265 $Y=1.4865
C193	I0/avC7#7	gnd!#1	6.86924e-18	$X=1.0395 $Y=0.8945
C194	vdd!	D#1	6.99978e-18	$X=0.501 $Y=2.1465
C195	I0/avC7	CLK#11	3.25687e-18	$X=2.9845 $Y=0.997
C196	avC10#13	!CLK#8	3.8895e-18	$X=3.7835 $Y=2.1305
C197	I0/avC8	avC10#13	4.64434e-18	$X=3.908 $Y=2.024
C198	vdd!	CLK#6	8.61344e-18	$X=0.712 $Y=2.207
C199	D	!CLK#2	1.48115e-17	$X=0.7265 $Y=1.253
C200	CLK#9	I0/avC9#5	3.43419e-18	$X=3.5695 $Y=1.361
C201	Q#2	!Set#1	1.11097e-18	$X=4.4755 $Y=1.089
C202	I0/avC8	gnd!#1	3.73252e-17	$X=3.174 $Y=0.746
C203	CLK#10	I0/avC9#5	1.05913e-17	$X=3.2765 $Y=1.73
C204	I0/avC9#5	!CLK#8	2.90829e-17	$X=3.1695 $Y=2.2875
C205	gnd!#10	D	1.24334e-17	$X=0.2915 $Y=0.891
C206	D	CLK#5	1.36734e-17	$X=0.6625 $Y=1.5815
C207	vdd!	!CLK#8	1.72742e-17	$X=2.938 $Y=2.185
C208	vdd!	!Set#2	3.47471e-18	$X=4.2895 $Y=2.062
C209	vdd!	Set#4	5.26471e-18	$X=4.6995 $Y=2.0615
C210	!CLK#2	I0/avC7	2.80361e-18	$X=0.886 $Y=1.1975
C211	D	I0/avC7	1.59278e-18	$X=0.497 $Y=1.412
C212	I0/avC7#7	!CLK#1	2.1982e-17	$X=0.899 $Y=1.0475
C213	I0/avC9#8	I0/avC7	2.47356e-18	$X=2.5955 $Y=2.2625
C214	Q#2	!Set#4	8.73161e-18	$X=4.4555 $Y=0.849
C215	I0/avC7#7	!CLK#5	6.69341e-18	$X=0.828 $Y=0.827
C216	CLK#7	vdd!	9.16464e-18	$X=1.4455 $Y=1.613
C217	I0/avC7#2	I0/avC8#6	3.78284e-18	$X=1.48 $Y=1.164
C218	CLK#10	vdd!	8.31277e-18	$X=3.179 $Y=1.619
C219	R#5	I0/avC8	1.09183e-18	$X=4.0865 $Y=1.132
C220	avC10#14	Q#5	1.4165e-17	$X=4.6005 $Y=1.914
C221	avC10#14	vdd!	1.0052e-17	$X=4.559 $Y=1.8385
C222	I0/avC7	vdd!#1	6.24265e-17	$X=1.9975 $Y=1.8165
C223	I0/avC7#7	I0/avC8#6	2.60022e-18	$X=1.3365 $Y=0.883
C224	avC10#9	!CLK#8	1.73403e-18	$X=4.048 $Y=1.9425
C225	R#9	vdd!	1.89961e-18	$X=4.8795 $Y=1.9295
C226	avC10#2	I0/avC9#5	2.47838e-17	$X=3.4815 $Y=2.2675
C227	I0/avC9#5	I0/avC7	1.58214e-18	$X=2.7595 $Y=2.241
C228	avC10#5	!CLK#8	3.9869e-18	$X=3.193 $Y=1.4815
C229	I0/avC8	avC10#2	2.99795e-18	$X=3.483 $Y=2.1865
C230	!CLK#3	D	9.20624e-18	$X=0.9065 $Y=1.338
C231	I0/avC8	R#3	3.31486e-17	$X=4.104 $Y=0.7875
C232	vdd!	I0/avC7	6.42782e-17	$X=1.832 $Y=1.921
C233	CLK#1	D	5.63286e-18	$X=0.683 $Y=1.508
C234	CLK#5	I0/avC7	2.99541e-18	$X=0.8775 $Y=1.689
C235	CLK#3	D	1.75383e-17	$X=0.7085 $Y=1.5265
C236	!CLK#3	vdd!	2.08858e-18	$X=1.424 $Y=1.3275
C237	!CLK#3	I0/avC7	1.43817e-17	$X=1.4305 $Y=1.283
C238	vdd!#10	I0/avC7#3	1.27339e-17	$X=0.598 $Y=2.132
C239	I0/avC9#4	vdd!	9.76346e-17	$X=1.9345 $Y=2.3465
C240	I0/avC8	avC10#6	2.10038e-18	$X=3.198 $Y=0.7445
C241	avC10#7	!Set#4	5.50564e-19	$X=3.805 $Y=0.8135
C242	I0/avC7#7	!CLK#2	2.9287e-18	$X=0.948 $Y=1.044
C243	R#9	Q#5	1.42889e-18	$X=4.7315 $Y=1.944
C244	!CLK#7	vdd!	2.39703e-18	$X=2.5805 $Y=1.638
C245	avC10	!CLK#8	3.51377e-17	$X=3.177 $Y=2.201
C246	I0/avC9#8	vdd!	3.35629e-17	$X=2.6175 $Y=2.3575
C247	!CLK#1	D	1.91458e-18	$X=0.723 $Y=1.2015
C248	vdd!#10	CLK#6	4.89771e-18	$X=0.4875 $Y=2.227
C249	avC10#2	vdd!	1.28975e-18	$X=3.457 $Y=2.251
C250	Q#5	Set#4	1.06725e-17	$X=4.661 $Y=2.0075
C251	R	Q#2	1.50517e-17	$X=4.373 $Y=0.8545
C252	!CLK#5	I0/avC7	1.79884e-18	$X=0.7105 $Y=0.796
C253	I0/avC8	!CLK#8	2.21754e-18	$X=3.1395 $Y=1.8105
C254	!CLK#4	D	1.61038e-17	$X=0.744 $Y=1.291
C255	avC10#13	vdd!	1.33788e-17	$X=3.8695 $Y=2.1505
C256	gnd!#10	!CLK#5	3.14808e-18	$X=0.475 $Y=0.764
C257	I0/avC9#5	vdd!#1	2.57372e-17	$X=3.1285 $Y=2.658
C258	avC10#9	vdd!	3.48096e-18	$X=4.1 $Y=1.9345
C259	avC10#15	I0/avC8	4.26222e-18	$X=4.5845 $Y=0.829
C260	CLK#11	!Set#1	5.7849e-18	$X=4.208 $Y=1.2995
C261	I0/avC9#5	CLK#11	2.4955e-18	$X=3.266 $Y=1.434
C262	R#8	vdd!	7.75664e-18	$X=4.831 $Y=2.0385
C263	I0/avC8	I0/avC7#7	9.18232e-19	$X=1.1125 $Y=0.889
C264	vdd!	gnd!#1	1.29988e-16	$X=1.839 $Y=2.529
C265	I0/avC7#2	D	5.83861e-18	$X=0.888 $Y=1.412
C266	I0/avC8	avC10#7	9.0993e-17	$X=3.1985 $Y=0.837
C267	!CLK#3	I0/avC8#6	2.40193e-18	$X=1.656 $Y=1.0345
C268	CLK#11	!CLK#8	1.40813e-17	$X=3.1985 $Y=1.5065
C269	!Set	CLK#11	2.2989e-18	$X=4.0875 $Y=1.3465
C270	avC10#15	Q#2	5.61972e-18	$X=4.5965 $Y=0.8855
C271	CLK#11	gnd!#1	6.92716e-17	$X=3.269 $Y=0.878
C272	CLK#11	!Set#4	3.28589e-18	$X=4.2485 $Y=0.7975
C273	avC10#13	Q#5	2.65878e-17	$X=4.373 $Y=2.0195
C274	I0/avC8	R	2.69579e-17	$X=4.104 $Y=0.7875
C275	I0/avC9#8	!CLK#8	1.52025e-17	$X=2.8145 $Y=2.278
C276	!CLK#7	I0/avC8#6	8.61896e-18	$X=2.096 $Y=1.0925
C277	CLK#7	I0/avC7	6.8732e-18	$X=1.4535 $Y=1.5485
C278	!CLK#8	vdd!#1	4.72074e-17	$X=3.075 $Y=2.1735
C279	Q#2	Set#2	1.23048e-18	$X=4.643 $Y=1.089
C280	avC10#7	CLK#9	3.2794e-18	$X=3.353 $Y=1.001
C281	R#10	Q#2	3.02301e-18	$X=4.641 $Y=0.999
C282	I0/avC7	!CLK#6	5.09808e-18	$X=2.667 $Y=1.6755
C283	avC10#5	CLK#11	8.88686e-18	$X=3.2055 $Y=1.3665
C284	I0/avC8	!CLK#7	4.16307e-17	$X=2.6955 $Y=1.479
C285	I0/avC7	I0/avC9#4	4.09057e-17	$X=1.931 $Y=2.253
C286	I0/avC8	CLK#9	5.48396e-17	$X=3.5735 $Y=1.228
C287	I0/avC7#7	D#4	2.25837e-18	$X=0.719 $Y=0.8585
C288	I0/avC8	avC10#18	1.14632e-18	$X=4.874 $Y=0.735
C289	I0/avC7	!CLK#8	2.54357e-18	$X=2.8755 $Y=2.0005
C290	D	gnd!#1	2.25835e-17	$X=0.407 $Y=1.4075
C291	I0/avC7#3	vdd!	3.88055e-17	$X=1.0625 $Y=1.9855
C292	avC10#2	!CLK#8	9.32181e-19	$X=3.4515 $Y=2.23
C293	D	vdd!#1	2.83033e-17	$X=0.457 $Y=1.439
C294	I0/avC9#5	avC10	4.46457e-17	$X=3.21 $Y=2.3085
C295	Q#2	Set#3	8.45319e-18	$X=4.663 $Y=0.849
C296	avC10#9	I0/avC9#5	2.39487e-18	$X=4.1015 $Y=1.9555
C297	avC10#14	I0/avC9#5	6.5037e-19	$X=4.5325 $Y=1.8955
C298	vdd!	I0/avC9#5	1.14349e-16	$X=2.8645 $Y=2.6135
C299	vdd!#10	D#1	1.48207e-17	$X=0.3625 $Y=2.198
C300	avC10	vdd!	7.53617e-18	$X=3.0965 $Y=2.2585
C301	Q#5	R#8	2.60283e-17	$X=4.692 $Y=1.9825
C302	avC10#7	CLK#11	1.52783e-17	$X=3.2065 $Y=0.844
C303	CLK#10	I0/avC8	2.22868e-17	$X=3.268 $Y=1.4595
C304	gnd!#10	D#4	9.41502e-18	$X=0.3555 $Y=0.784
C305	Q#5	!Set#2	9.63521e-18	$X=4.4575 $Y=2.008
C306	I0/avC8#6	gnd!#1	8.00077e-18	$X=1.839 $Y=0.8645
C307	I0/avC8#6	!CLK#2	9.51586e-19	$X=1.2165 $Y=1.071
C308	CLK#7	D	2.20564e-18	$X=0.8435 $Y=1.4705
C309	I0/avC8	I0/avC7	2.33726e-18	$X=2.5685 $Y=1.0775
C310	CLK#10	!CLK#8	8.54014e-19	$X=3.2345 $Y=1.7245
C311	R	CLK#11	8.54865e-19	$X=4.0425 $Y=0.799
C312	I0/avC8#6	I0/avC7	6.12112e-17	$X=1.8385 $Y=0.8935
C313	R#3	Q#2	2.90809e-18	$X=4.373 $Y=0.8545
C314	CLK#9	!CLK#8	2.11471e-18	$X=3.523 $Y=1.3895
C315	!CLK#3	I0/avC7#7	3.16028e-18	$X=1.149 $Y=1.007
C316	avC10#13	I0/avC9#5	2.65998e-17	$X=3.889 $Y=2.1905
C317	gnd!#10	I0/avC7#7	7.17383e-18	$X=0.5695 $Y=0.8045
C318	!CLK#7	CLK#11	6.98871e-19	$X=2.8225 $Y=1.3665
C319	avC10#13	gnd!#1	5.79304e-19	$X=3.9695 $Y=2.132
C320	avC10#9	I0/avC9#8	5.97358e-19	$X=3.869 $Y=2.002
C321	R#5	CLK#11	2.69498e-19	$X=3.999 $Y=1.1095
C322	avC10#15	!Set#4	1.91657e-19	$X=4.451 $Y=0.803
C323	avC10#15	!Set	2.4628e-19	$X=4.342 $Y=1.2175
C324	I0/avC9#4	!CLK#8	6.06948e-19	$X=2.299 $Y=2.2705
C325	!CLK#4	I0/avC7	3.04764e-19	$X=0.8225 $Y=1.271
C326	CLK#10	avC10	5.88758e-19	$X=3.241 $Y=1.8795
C327	avC10#15	CLK#9	6.54126e-19	$X=4.0675 $Y=1.0725
C328	avC10#14	CLK#9	8.38835e-19	$X=4.045 $Y=1.483
C329	R#9	Q	2.08139e-19	$X=4.689 $Y=1.556
C330	R#5	avC10#5	2.7392e-19	$X=3.521 $Y=1.326
C331	R#8	avC10#18	3.81053e-19	$X=4.9765 $Y=1.261
C332	avC10#9	R	5.65569e-19	$X=4.1395 $Y=1.427
C333	CLK#7	I0/avC7#7	3.92706e-19	$X=1.1325 $Y=1.0555
C334	CLK#3	I0/avC7	4.63693e-19	$X=0.832 $Y=1.565
C335	vdd!	gnd!	1.08575e-17	$X=1.7295 $Y=1.4675
C336	!Set	gnd!	1.30273e-18	$X=4.117 $Y=1.3805
C337	D	gnd!	2.95615e-18	$X=0.479 $Y=1.362
C338	R	gnd!	1.45819e-17	$X=4.071 $Y=0.785
C339	Set	gnd!	1.26243e-18	$X=4.8585 $Y=1.3805
C340	Q	gnd!	5.88125e-18	$X=4.5055 $Y=1.3835
C341	D#1	gnd!	3.67354e-19	$X=0.5035 $Y=2.093
C342	CLK#6	gnd!	5.72122e-19	$X=0.713 $Y=2.161
C343	!CLK#8	gnd!	4.40622e-18	$X=2.8605 $Y=1.8555
C344	!Set#2	gnd!	6.52412e-18	$X=4.268 $Y=2.008
C345	Set#4	gnd!	6.67414e-19	$X=4.675 $Y=2.0075
C346	D#4	gnd!	9.83557e-18	$X=0.493 $Y=0.8265
C347	!CLK#5	gnd!	1.01837e-17	$X=0.7055 $Y=0.78
C348	CLK#11	gnd!	1.82853e-17	$X=2.971 $Y=0.8325
C349	!Set#4	gnd!	1.75281e-17	$X=4.288 $Y=0.7855
C350	Set#3	gnd!	1.1728e-17	$X=4.6985 $Y=0.7855
C351	CLK#7	gnd!	9.26277e-18	$X=1.437 $Y=1.4845
C352	CLK#10	gnd!	8.48877e-18	$X=3.137 $Y=1.4705
C353	R#4	gnd!	4.32006e-18	$X=4.0955 $Y=0.806
C354	R#5	gnd!	6.60238e-18	$X=4.036 $Y=1.1325
C355	avC10#15	gnd!	7.83697e-18	$X=4.5315 $Y=0.8245
C356	avC10#14	gnd!	1.40031e-18	$X=4.5165 $Y=1.7435
C357	R#10	gnd!	1.6402e-18	$X=4.674 $Y=1.1875
C358	R#9	gnd!	1.45812e-18	$X=4.8455 $Y=1.8585
C359	!CLK#2	gnd!	8.14709e-19	$X=0.879 $Y=1.1755
C360	I0/avC7	gnd!	4.71266e-17	$X=1.739 $Y=1.078
C361	!CLK#6	gnd!	9.68716e-19	$X=2.665 $Y=1.66
C362	!Set#1	gnd!	3.93604e-19	$X=4.261 $Y=1.3395
C363	!CLK#3	gnd!	1.21412e-17	$X=1.4175 $Y=1.232
C364	CLK#1	gnd!	3.6457e-18	$X=0.832 $Y=1.529
C365	I0/avC9#4	gnd!	2.23623e-18	$X=1.916 $Y=2.1855
C366	I0/avC8	gnd!	1.56676e-16	$X=2.5195 $Y=0.697
C367	!CLK#7	gnd!	9.08512e-18	$X=2.55 $Y=1.491
C368	I0/avC9#8	gnd!	3.19742e-18	$X=2.5855 $Y=2.1935
C369	avC10#2	gnd!	3.214e-19	$X=3.4415 $Y=2.1975
C370	CLK#9	gnd!	3.35101e-18	$X=3.519 $Y=1.23
C371	avC10#13	gnd!	3.8607e-19	$X=3.832 $Y=2.043
C372	R#3	gnd!	7.88365e-18	$X=4.071 $Y=0.785
C373	avC10#9	gnd!	1.04361e-20	$X=4.0855 $Y=1.8965
C374	avC10#18	gnd!	2.41731e-17	$X=4.834 $Y=0.73
C375	R#8	gnd!	6.7153e-20	$X=4.7815 $Y=1.9325
C376	vdd!#1	gnd!	2.99465e-18	$X=1.8775 $Y=1.2315
C377	I0/avC7#3	gnd!	2.56969e-19	$X=1.0615 $Y=1.9205
C378	I0/avC9#5	gnd!	3.84555e-18	$X=2.7285 $Y=1.985
C379	avC10#5	gnd!	2.48207e-18	$X=3.165 $Y=1.3985
C380	avC10	gnd!	2.8988e-18	$X=3.053 $Y=2.086
C381	!CLK#1	gnd!	4.96497e-18	$X=0.823 $Y=1.1365
C382	!CLK#4	gnd!	5.61831e-19	$X=0.819 $Y=1.2605
C383	I0/avC7#2	gnd!	3.13337e-18	$X=1.196 $Y=1.387
C384	I0/avC7#7	gnd!	3.56937e-17	$X=1.055 $Y=0.8875
C385	I0/avC8#6	gnd!	6.85604e-17	$X=1.831 $Y=0.8545
C386	avC10#7	gnd!	1.60942e-17	$X=3.16 $Y=0.835
C387	Q#2	gnd!	1.69151e-17	$X=4.495 $Y=0.9005
C388	Q#5	gnd!	1.13191e-17	$X=4.477 $Y=1.93
C389	Set#2	gnd!	5.70059e-19	$X=4.667 $Y=1.339
*
*
.ENDS dff_dynamic_reset
*
