*
*
*
*                       LINUX           Mon May 17 03:36:13 2021
*
*
*
*  PROGRAM  advgen
*
*  Name           : advgen - Quantus - (64-bit)
*  Version        : 20.1.2-p025
*  Build Date     : Thu Sep 3 13:54:09 PDT 2020
*
*  HSPICE LIBRARY
*
*!LENGTH_UNITS METERS
*
*
*

*
.SUBCKT LFSR_11_0 vdd! gnd! CLK Set 11_B0
*
*
*  caps2d version: 10
*
*
*       TRANSISTOR CARDS
*
*
MI398/avD1_1	I398/avC7#6	11_B0#20	gnd!#42	gnd!#5
+ nmos1v#20ivpcell#20gpdk090	L=1e-07	W=2.4e-07
+ AD=3.84e-14	AS=6.72e-14	PD=5.6e-07	PS=1.04e-06	simW=2.4e-07 fw=2.4e-07
MI398/avD1_2	avC17	avC16#13	I398/avC7#6	gnd!#5
+ nmos1v#20ivpcell#20gpdk090	L=1e-07	W=2.4e-07
+ AD=6.72e-14	AS=3.84e-14	PD=1.04e-06	PS=5.6e-07	simW=2.4e-07 fw=2.4e-07
MI398/avD1_3	I398/avC6	avC16#11	gnd!#39	gnd!#5
+ nmos1v#20ivpcell#20gpdk090	L=1e-07	W=4.8e-07
+ AD=1.344e-13	AS=1.344e-13	PD=1.52e-06	PS=1.52e-06	simW=4.8e-07 fw=4.8e-07
MI398/avD1_4	I398/avC8	I398/avC6#10	avC17#9	gnd!#5
+ nmos1v#20ivpcell#20gpdk090	L=1e-07	W=3.6e-07
+ AD=2.16e-14	AS=1.008e-13	PD=4.8e-07	PS=1.28e-06	simW=3.6e-07 fw=3.6e-07
MI398/avD1_5	gnd!#36	I398/avC7#18	I398/avC8	gnd!#5
+ nmos1v#20ivpcell#20gpdk090	L=1e-07	W=3.6e-07
+ AD=1.008e-13	AS=2.16e-14	PD=1.28e-06	PS=4.8e-07	simW=3.6e-07 fw=3.6e-07
MI26/avD1_1	11_B0#6	avC6#12	gnd!#87	gnd!#5
+ nmos1v#20ivpcell#20gpdk090	L=1e-07	W=2.4e-07
+ AD=6.72e-14	AS=6.72e-14	PD=1.04e-06	PS=1.04e-06	simW=2.4e-07 fw=2.4e-07
MI25/avD1_1	avC6#7	avC11#16	gnd!#90	gnd!#5
+ nmos1v#20ivpcell#20gpdk090	L=1e-07	W=1.2e-07
+ AD=6.96e-14	AS=6.96e-14	PD=1.16e-06	PS=1.16e-06	simW=1.2e-07 fw=1.2e-07
MI390/I1/avD1_1	avC20#5	avC8#112	vdd!#78	gnd!#5
+ nmos1v#20ivpcell#20gpdk090	L=1e-07	W=3e-07
+ AD=4.8e-14	AS=8.4e-14	PD=6.2e-07	PS=1.16e-06	simW=3e-07 fw=3e-07
MI390/I1/avD1_2	I390/avC10#2	Set#99	avC20#5	gnd!#5
+ nmos1v#20ivpcell#20gpdk090	L=1e-07	W=3e-07
+ AD=8.4e-14	AS=4.8e-14	PD=1.16e-06	PS=6.2e-07	simW=3e-07 fw=3e-07
MI390/I0/avD1_1	I390/I0/avC10	avC10#16	gnd!#1	gnd!#5
+ nmos1v#20ivpcell#20gpdk090	L=1e-07	W=2.4e-07
+ AD=1.44e-14	AS=6.72e-14	PD=3.6e-07	PS=1.04e-06	simW=2.4e-07 fw=2.4e-07
MI390/I0/avD1_2	I390/I0/avC7#10	avC7#212	I390/I0/avC10	gnd!#5
+ nmos1v#20ivpcell#20gpdk090	L=1e-07	W=2.4e-07
+ AD=6.72e-14	AS=1.44e-14	PD=1.04e-06	PS=3.6e-07	simW=2.4e-07 fw=2.4e-07
MI391/I1/avD1_1	avC18#5	avC8#92	vdd!#62	gnd!#5
+ nmos1v#20ivpcell#20gpdk090	L=1e-07	W=3e-07
+ AD=4.8e-14	AS=8.4e-14	PD=6.2e-07	PS=1.16e-06	simW=3e-07 fw=3e-07
MI391/I1/avD1_2	I391/avC10#2	Set#80	avC18#5	gnd!#5
+ nmos1v#20ivpcell#20gpdk090	L=1e-07	W=3e-07
+ AD=8.4e-14	AS=4.8e-14	PD=1.16e-06	PS=6.2e-07	simW=3e-07 fw=3e-07
MI391/I0/avD1_1	I391/I0/avC10	avC20#4	gnd!#94	gnd!#5
+ nmos1v#20ivpcell#20gpdk090	L=1e-07	W=2.4e-07
+ AD=1.44e-14	AS=6.72e-14	PD=3.6e-07	PS=1.04e-06	simW=2.4e-07 fw=2.4e-07
MI391/I0/avD1_2	I391/I0/avC7#10	avC7#182	I391/I0/avC10	gnd!#5
+ nmos1v#20ivpcell#20gpdk090	L=1e-07	W=2.4e-07
+ AD=6.72e-14	AS=1.44e-14	PD=1.04e-06	PS=3.6e-07	simW=2.4e-07 fw=2.4e-07
MI392/I1/avD1_1	avC15#5	avC8#81	vdd!#49	gnd!#5
+ nmos1v#20ivpcell#20gpdk090	L=1e-07	W=3e-07
+ AD=4.8e-14	AS=8.4e-14	PD=6.2e-07	PS=1.16e-06	simW=3e-07 fw=3e-07
MI392/I1/avD1_2	I392/avC10#2	Set#64	avC15#5	gnd!#5
+ nmos1v#20ivpcell#20gpdk090	L=1e-07	W=3e-07
+ AD=8.4e-14	AS=4.8e-14	PD=1.16e-06	PS=6.2e-07	simW=3e-07 fw=3e-07
MI392/I0/avD1_1	I392/I0/avC10	avC18#4	gnd!#104	gnd!#5
+ nmos1v#20ivpcell#20gpdk090	L=1e-07	W=2.4e-07
+ AD=1.44e-14	AS=6.72e-14	PD=3.6e-07	PS=1.04e-06	simW=2.4e-07 fw=2.4e-07
MI392/I0/avD1_2	I392/I0/avC7#10	avC7#155	I392/I0/avC10	gnd!#5
+ nmos1v#20ivpcell#20gpdk090	L=1e-07	W=2.4e-07
+ AD=6.72e-14	AS=1.44e-14	PD=1.04e-06	PS=3.6e-07	simW=2.4e-07 fw=2.4e-07
MI393/I1/avD1_1	avC14#5	avC8#61	vdd!#36	gnd!#5
+ nmos1v#20ivpcell#20gpdk090	L=1e-07	W=3e-07
+ AD=4.8e-14	AS=8.4e-14	PD=6.2e-07	PS=1.16e-06	simW=3e-07 fw=3e-07
MI393/I1/avD1_2	I393/avC10#2	Set#48	avC14#5	gnd!#5
+ nmos1v#20ivpcell#20gpdk090	L=1e-07	W=3e-07
+ AD=8.4e-14	AS=4.8e-14	PD=1.16e-06	PS=6.2e-07	simW=3e-07 fw=3e-07
MI393/I0/avD1_1	I393/I0/avC10	avC15#4	gnd!#114	gnd!#5
+ nmos1v#20ivpcell#20gpdk090	L=1e-07	W=2.4e-07
+ AD=1.44e-14	AS=6.72e-14	PD=3.6e-07	PS=1.04e-06	simW=2.4e-07 fw=2.4e-07
MI393/I0/avD1_2	I393/I0/avC7#10	avC7#131	I393/I0/avC10	gnd!#5
+ nmos1v#20ivpcell#20gpdk090	L=1e-07	W=2.4e-07
+ AD=6.72e-14	AS=1.44e-14	PD=1.04e-06	PS=3.6e-07	simW=2.4e-07 fw=2.4e-07
MI394/I1/avD1_1	avC13#5	avC8#34	vdd!#28	gnd!#5
+ nmos1v#20ivpcell#20gpdk090	L=1e-07	W=3e-07
+ AD=4.8e-14	AS=8.4e-14	PD=6.2e-07	PS=1.16e-06	simW=3e-07 fw=3e-07
MI394/I1/avD1_2	I394/avC10#2	Set#33	avC13#5	gnd!#5
+ nmos1v#20ivpcell#20gpdk090	L=1e-07	W=3e-07
+ AD=8.4e-14	AS=4.8e-14	PD=1.16e-06	PS=6.2e-07	simW=3e-07 fw=3e-07
MI394/I0/avD1_1	I394/I0/avC10	avC14#4	gnd!#124	gnd!#5
+ nmos1v#20ivpcell#20gpdk090	L=1e-07	W=2.4e-07
+ AD=1.44e-14	AS=6.72e-14	PD=3.6e-07	PS=1.04e-06	simW=2.4e-07 fw=2.4e-07
MI394/I0/avD1_2	I394/I0/avC7#10	avC7#86	I394/I0/avC10	gnd!#5
+ nmos1v#20ivpcell#20gpdk090	L=1e-07	W=2.4e-07
+ AD=6.72e-14	AS=1.44e-14	PD=1.04e-06	PS=3.6e-07	simW=2.4e-07 fw=2.4e-07
MI399/I1/avD1_1	avC12#5	avC8#20	vdd!#12	gnd!#5
+ nmos1v#20ivpcell#20gpdk090	L=1e-07	W=3e-07
+ AD=4.8e-14	AS=8.4e-14	PD=6.2e-07	PS=1.16e-06	simW=3e-07 fw=3e-07
MI399/I1/avD1_2	I399/avC10#2	Set#17	avC12#5	gnd!#5
+ nmos1v#20ivpcell#20gpdk090	L=1e-07	W=3e-07
+ AD=8.4e-14	AS=4.8e-14	PD=1.16e-06	PS=6.2e-07	simW=3e-07 fw=3e-07
MI399/I0/avD1_1	I399/I0/avC10	avC13#4	gnd!#134	gnd!#5
+ nmos1v#20ivpcell#20gpdk090	L=1e-07	W=2.4e-07
+ AD=1.44e-14	AS=6.72e-14	PD=3.6e-07	PS=1.04e-06	simW=2.4e-07 fw=2.4e-07
MI399/I0/avD1_2	I399/I0/avC7#10	avC7#39	I399/I0/avC10	gnd!#5
+ nmos1v#20ivpcell#20gpdk090	L=1e-07	W=2.4e-07
+ AD=6.72e-14	AS=1.44e-14	PD=1.04e-06	PS=3.6e-07	simW=2.4e-07 fw=2.4e-07
MI400/I1/avD1_1	avC11	avC8#4	vdd!#4	gnd!#5	nmos1v#20ivpcell#20gpdk090
+ L=1e-07	W=3e-07
+ AD=4.8e-14	AS=8.4e-14	PD=6.2e-07	PS=1.16e-06
+ simW=3e-07 fw=3e-07
MI400/I1/avD1_2	I400/avC10#2	Set#6	avC11	gnd!#5
+ nmos1v#20ivpcell#20gpdk090	L=1e-07	W=3e-07
+ AD=8.4e-14	AS=4.8e-14	PD=1.16e-06	PS=6.2e-07	simW=3e-07 fw=3e-07
MI400/I0/avD1_1	I400/I0/avC10	avC12#4	gnd!#144	gnd!#5
+ nmos1v#20ivpcell#20gpdk090	L=1e-07	W=2.4e-07
+ AD=1.44e-14	AS=6.72e-14	PD=3.6e-07	PS=1.04e-06	simW=2.4e-07 fw=2.4e-07
MI400/I0/avD1_2	I400/I0/avC7#10	avC7#6	I400/I0/avC10	gnd!#5
+ nmos1v#20ivpcell#20gpdk090	L=1e-07	W=2.4e-07
+ AD=6.72e-14	AS=1.44e-14	PD=1.04e-06	PS=3.6e-07	simW=2.4e-07 fw=2.4e-07
MI389/I1/avD1_1	avC10#6	avC8#120	vdd!#81	gnd!#5
+ nmos1v#20ivpcell#20gpdk090	L=1e-07	W=3e-07
+ AD=4.8e-14	AS=8.4e-14	PD=6.2e-07	PS=1.16e-06	simW=3e-07 fw=3e-07
MI389/I1/avD1_2	I389/avC10#16	Set#105	avC10#6	gnd!#5
+ nmos1v#20ivpcell#20gpdk090	L=1e-07	W=3e-07
+ AD=8.4e-14	AS=4.8e-14	PD=1.16e-06	PS=6.2e-07	simW=3e-07 fw=3e-07
MI389/I0/avD1_1	I389/I0/avC10	avC19#13	gnd!#24	gnd!#5
+ nmos1v#20ivpcell#20gpdk090	L=1e-07	W=2.4e-07
+ AD=1.44e-14	AS=6.72e-14	PD=3.6e-07	PS=1.04e-06	simW=2.4e-07 fw=2.4e-07
MI389/I0/avD1_2	I389/I0/avC7#6	avC7#190	I389/I0/avC10	gnd!#5
+ nmos1v#20ivpcell#20gpdk090	L=1e-07	W=2.4e-07
+ AD=6.72e-14	AS=1.44e-14	PD=1.04e-06	PS=3.6e-07	simW=2.4e-07 fw=2.4e-07
MI396/I1/avD1_1	avC19#6	avC8#100	vdd!#65	gnd!#5
+ nmos1v#20ivpcell#20gpdk090	L=1e-07	W=3e-07
+ AD=4.8e-14	AS=8.4e-14	PD=6.2e-07	PS=1.16e-06	simW=3e-07 fw=3e-07
MI396/I1/avD1_2	I396/avC10#16	Set#90	avC19#6	gnd!#5
+ nmos1v#20ivpcell#20gpdk090	L=1e-07	W=3e-07
+ AD=8.4e-14	AS=4.8e-14	PD=1.16e-06	PS=6.2e-07	simW=3e-07 fw=3e-07
MI396/I0/avD1_1	I396/I0/avC10	avC17#20	gnd!#33	gnd!#5
+ nmos1v#20ivpcell#20gpdk090	L=1e-07	W=2.4e-07
+ AD=1.44e-14	AS=6.72e-14	PD=3.6e-07	PS=1.04e-06	simW=2.4e-07 fw=2.4e-07
MI396/I0/avD1_2	I396/I0/avC7#6	avC7#160	I396/I0/avC10	gnd!#5
+ nmos1v#20ivpcell#20gpdk090	L=1e-07	W=2.4e-07
+ AD=6.72e-14	AS=1.44e-14	PD=1.04e-06	PS=3.6e-07	simW=2.4e-07 fw=2.4e-07
MI397/I1/avD1_1	avC16#6	avC8#70	vdd!#41	gnd!#5
+ nmos1v#20ivpcell#20gpdk090	L=1e-07	W=3e-07
+ AD=4.8e-14	AS=8.4e-14	PD=6.2e-07	PS=1.16e-06	simW=3e-07 fw=3e-07
MI397/I1/avD1_2	I397/avC10#16	Set#71	avC16#6	gnd!#5
+ nmos1v#20ivpcell#20gpdk090	L=1e-07	W=3e-07
+ AD=8.4e-14	AS=4.8e-14	PD=1.16e-06	PS=6.2e-07	simW=3e-07 fw=3e-07
MI397/I0/avD1_1	I397/I0/avC10	avC9#16	gnd!#51	gnd!#5
+ nmos1v#20ivpcell#20gpdk090	L=1e-07	W=2.4e-07
+ AD=1.44e-14	AS=6.72e-14	PD=3.6e-07	PS=1.04e-06	simW=2.4e-07 fw=2.4e-07
MI397/I0/avD1_2	I397/I0/avC7#6	avC7#119	I397/I0/avC10	gnd!#5
+ nmos1v#20ivpcell#20gpdk090	L=1e-07	W=2.4e-07
+ AD=6.72e-14	AS=1.44e-14	PD=1.04e-06	PS=3.6e-07	simW=2.4e-07 fw=2.4e-07
MI395/I1/avD1_1	avC9#5	avC8#28	vdd!#17	gnd!#5
+ nmos1v#20ivpcell#20gpdk090	L=1e-07	W=3e-07
+ AD=4.8e-14	AS=8.4e-14	PD=6.2e-07	PS=1.16e-06	simW=3e-07 fw=3e-07
MI395/I1/avD1_2	I395/avC10#16	Set#27	avC9#5	gnd!#5
+ nmos1v#20ivpcell#20gpdk090	L=1e-07	W=3e-07
+ AD=8.4e-14	AS=4.8e-14	PD=1.16e-06	PS=6.2e-07	simW=3e-07 fw=3e-07
MI395/I0/avD1_1	I395/I0/avC10	11_B0#14	gnd!#84	gnd!#5
+ nmos1v#20ivpcell#20gpdk090	L=1e-07	W=2.4e-07
+ AD=1.44e-14	AS=6.72e-14	PD=3.6e-07	PS=1.04e-06	simW=2.4e-07 fw=2.4e-07
MI395/I0/avD1_2	I395/I0/avC7#6	avC7#17	I395/I0/avC10	gnd!#5
+ nmos1v#20ivpcell#20gpdk090	L=1e-07	W=2.4e-07
+ AD=6.72e-14	AS=1.44e-14	PD=1.04e-06	PS=3.6e-07	simW=2.4e-07 fw=2.4e-07
MI399/I0/avD1_5	I399/avC10#12	CLK#28	I399/I0/avC8	gnd!#5
+ nmos1v#20ivpcell#20gpdk090	L=1e-07	W=4.2e-07
+ AD=6.72e-14	AS=1.176e-13	PD=7.4e-07	PS=1.4e-06	M=2	simW=4.2e-07 fw=4.2e-07
MI400/I0/avD1_5	I400/avC10#12	CLK#4	I400/I0/avC8	gnd!#5
+ nmos1v#20ivpcell#20gpdk090	L=1e-07	W=4.2e-07
+ AD=6.72e-14	AS=1.176e-13	PD=7.4e-07	PS=1.4e-06	M=2	simW=4.2e-07 fw=4.2e-07
MI392/I0/avD1_3	I392/I0/avC8#5	I392/I0/avC7	gnd!#4	gnd!#5
+ nmos1v#20ivpcell#20gpdk090	L=1e-07	W=4.2e-07
+ AD=6.72e-14	AS=1.176e-13	PD=7.4e-07	PS=1.4e-06	M=2	simW=4.2e-07 fw=4.2e-07
MI392/I0/avD1_5	I392/avC10#12	CLK#144	I392/I0/avC8	gnd!#5
+ nmos1v#20ivpcell#20gpdk090	L=1e-07	W=4.2e-07
+ AD=6.72e-14	AS=1.176e-13	PD=7.4e-07	PS=1.4e-06	M=2	simW=4.2e-07 fw=4.2e-07
MI395/I0/avD1_3	I395/I0/avC8#5	I395/I0/avC7	gnd!	gnd!#5
+ nmos1v#20ivpcell#20gpdk090	L=1e-07	W=4.2e-07
+ AD=6.72e-14	AS=1.176e-13	PD=7.4e-07	PS=1.4e-06	M=2	simW=4.2e-07 fw=4.2e-07
MI395/I0/avD1_5	I395/avC10#6	CLK#36	I395/I0/avC8	gnd!#5
+ nmos1v#20ivpcell#20gpdk090	L=1e-07	W=4.2e-07
+ AD=6.72e-14	AS=1.176e-13	PD=7.4e-07	PS=1.4e-06	M=2	simW=4.2e-07 fw=4.2e-07
MI391/I0/avD1_5	I391/avC10#12	CLK#168	I391/I0/avC8	gnd!#5
+ nmos1v#20ivpcell#20gpdk090	L=1e-07	W=4.2e-07
+ AD=6.72e-14	AS=1.176e-13	PD=7.4e-07	PS=1.4e-06	M=2	simW=4.2e-07 fw=4.2e-07
MI13/avD1_1	avC8#44	Set#51	gnd!	gnd!#5
+ nmos1v#20ivpcell#20gpdk090	L=1e-07	W=2.4e-07
+ AD=3.84e-14	AS=6.72e-14	PD=5.6e-07	PS=1.04e-06	M=2	simW=2.4e-07 fw=2.4e-07
MI397/I0/avD1_3	I397/I0/avC8#5	I397/I0/avC7	gnd!	gnd!#5
+ nmos1v#20ivpcell#20gpdk090	L=1e-07	W=4.2e-07
+ AD=6.72e-14	AS=1.176e-13	PD=7.4e-07	PS=1.4e-06	M=2	simW=4.2e-07 fw=4.2e-07
MI390/I0/avD1_5	I390/avC10#12	CLK#200	I390/I0/avC8	gnd!#5
+ nmos1v#20ivpcell#20gpdk090	L=1e-07	W=4.2e-07
+ AD=6.72e-14	AS=1.176e-13	PD=7.4e-07	PS=1.4e-06	M=2	simW=4.2e-07 fw=4.2e-07
MI396/I0/avD1_3	I396/I0/avC8#5	I396/I0/avC7	gnd!	gnd!#5
+ nmos1v#20ivpcell#20gpdk090	L=1e-07	W=4.2e-07
+ AD=6.72e-14	AS=1.176e-13	PD=7.4e-07	PS=1.4e-06	M=2	simW=4.2e-07 fw=4.2e-07
MI389/I0/avD1_3	I389/I0/avC8#5	I389/I0/avC7	gnd!	gnd!#5
+ nmos1v#20ivpcell#20gpdk090	L=1e-07	W=4.2e-07
+ AD=6.72e-14	AS=1.176e-13	PD=7.4e-07	PS=1.4e-06	M=2	simW=4.2e-07 fw=4.2e-07
MI394/I0/avD1_5	I394/avC10#12	CLK#55	I394/I0/avC8	gnd!#5
+ nmos1v#20ivpcell#20gpdk090	L=1e-07	W=4.2e-07
+ AD=6.72e-14	AS=1.176e-13	PD=7.4e-07	PS=1.4e-06	M=2	simW=4.2e-07 fw=4.2e-07
MI393/I0/avD1_5	I393/avC10#12	CLK#120	I393/I0/avC8	gnd!#5
+ nmos1v#20ivpcell#20gpdk090	L=1e-07	W=4.2e-07
+ AD=6.72e-14	AS=1.176e-13	PD=7.4e-07	PS=1.4e-06	M=2	simW=4.2e-07 fw=4.2e-07
MI17/avD1_1	avC7#50	CLK#75	gnd!	gnd!#5
+ nmos1v#20ivpcell#20gpdk090	L=1e-07	W=5.45e-07
+ AD=9.31455e-14	AS=9.31455e-14	PD=9.36363e-07	PS=9.36363e-07	M=11	simW=5.45e-07 fw=5.45e-07
MI393/I0/avD1_3	I393/I0/avC8#5	I393/I0/avC7	gnd!#4	gnd!#5
+ nmos1v#20ivpcell#20gpdk090	L=1e-07	W=4.2e-07
+ AD=6.72e-14	AS=1.176e-13	PD=7.4e-07	PS=1.4e-06	M=2	simW=4.2e-07 fw=4.2e-07
MI389/I0/avD1_5	I389/avC10#6	CLK#208	I389/I0/avC8	gnd!#5
+ nmos1v#20ivpcell#20gpdk090	L=1e-07	W=4.2e-07
+ AD=6.72e-14	AS=1.176e-13	PD=7.4e-07	PS=1.4e-06	M=2	simW=4.2e-07 fw=4.2e-07
MI397/I0/avD1_5	I397/avC10#6	CLK#138	I397/I0/avC8	gnd!#5
+ nmos1v#20ivpcell#20gpdk090	L=1e-07	W=4.2e-07
+ AD=6.72e-14	AS=1.176e-13	PD=7.4e-07	PS=1.4e-06	M=2	simW=4.2e-07 fw=4.2e-07
MI394/I0/avD1_3	I394/I0/avC8#5	I394/I0/avC7	gnd!#4	gnd!#5
+ nmos1v#20ivpcell#20gpdk090	L=1e-07	W=4.2e-07
+ AD=6.72e-14	AS=1.176e-13	PD=7.4e-07	PS=1.4e-06	M=2	simW=4.2e-07 fw=4.2e-07
MI399/I0/avD1_3	I399/I0/avC8#5	I399/I0/avC7	gnd!#4	gnd!#5
+ nmos1v#20ivpcell#20gpdk090	L=1e-07	W=4.2e-07
+ AD=6.72e-14	AS=1.176e-13	PD=7.4e-07	PS=1.4e-06	M=2	simW=4.2e-07 fw=4.2e-07
MI390/I0/avD1_3	I390/I0/avC8#5	I390/I0/avC7	gnd!#4	gnd!#5
+ nmos1v#20ivpcell#20gpdk090	L=1e-07	W=4.2e-07
+ AD=6.72e-14	AS=1.176e-13	PD=7.4e-07	PS=1.4e-06	M=2	simW=4.2e-07 fw=4.2e-07
MI391/I0/avD1_3	I391/I0/avC8#5	I391/I0/avC7	gnd!#4	gnd!#5
+ nmos1v#20ivpcell#20gpdk090	L=1e-07	W=4.2e-07
+ AD=6.72e-14	AS=1.176e-13	PD=7.4e-07	PS=1.4e-06	M=2	simW=4.2e-07 fw=4.2e-07
MI396/I0/avD1_5	I396/avC10#6	CLK#176	I396/I0/avC8	gnd!#5
+ nmos1v#20ivpcell#20gpdk090	L=1e-07	W=4.2e-07
+ AD=6.72e-14	AS=1.176e-13	PD=7.4e-07	PS=1.4e-06	M=2	simW=4.2e-07 fw=4.2e-07
MI400/I0/avD1_3	I400/I0/avC8#5	I400/I0/avC7	gnd!#4	gnd!#5
+ nmos1v#20ivpcell#20gpdk090	L=1e-07	W=4.2e-07
+ AD=6.72e-14	AS=1.176e-13	PD=7.4e-07	PS=1.4e-06	M=2	simW=4.2e-07 fw=4.2e-07
MI398/avD7_1	I398/avC7#3	11_B0#22	vdd!#153	vdd!#89
+ pmos1v#20ivpcell#20gpdk090	L=1e-07	W=2.4e-07
+ AD=6.72e-14	AS=6.72e-14	PD=1.04e-06	PS=1.04e-06	simW=2.4e-07 fw=2.4e-07
MI398/avD7_2	I398/avC6#5	avC16#14	vdd!#140	vdd!#89
+ pmos1v#20ivpcell#20gpdk090	L=1e-07	W=9e-07
+ AD=1.44e-13	AS=2.52e-13	PD=1.22e-06	PS=2.36e-06	simW=9e-07 fw=9e-07
MI398/avD7_3	avC17#6	I398/avC7#13	I398/avC6#5	vdd!#89
+ pmos1v#20ivpcell#20gpdk090	L=1e-07	W=9e-07
+ AD=2.52e-13	AS=1.44e-13	PD=2.36e-06	PS=1.22e-06	simW=9e-07 fw=9e-07
MI398/avD7_4	avC17#17	I398/avC6#9	I398/avC7#14	vdd!#89
+ pmos1v#20ivpcell#20gpdk090	L=1e-07	W=2.4e-07
+ AD=6.72e-14	AS=6.72e-14	PD=1.04e-06	PS=1.04e-06	simW=2.4e-07 fw=2.4e-07
MI26/avD7_1	11_B0#9	avC6	vdd!#245	vdd!#89
+ pmos1v#20ivpcell#20gpdk090	L=1e-07	W=4.8e-07
+ AD=1.344e-13	AS=1.344e-13	PD=1.52e-06	PS=1.52e-06	simW=4.8e-07 fw=4.8e-07
MI25/avD7_1	avC6#4	avC11#14	vdd!#261	vdd!#89
+ pmos1v#20ivpcell#20gpdk090	L=1e-07	W=2.4e-07
+ AD=6.72e-14	AS=6.72e-14	PD=1.04e-06	PS=1.04e-06	simW=2.4e-07 fw=2.4e-07
MI390/I1/avD7_1	avC20#11	avC8#111	I390/avC10#9	vdd!#89
+ pmos1v#20ivpcell#20gpdk090	L=1e-07	W=6e-07
+ AD=9.6e-14	AS=1.68e-13	PD=9.2e-07	PS=1.76e-06	simW=6e-07 fw=6e-07
MI390/I1/avD7_2	vdd!#115	Set#101	avC20#11	vdd!#89
+ pmos1v#20ivpcell#20gpdk090	L=1e-07	W=6e-07
+ AD=1.68e-13	AS=9.6e-14	PD=1.76e-06	PS=9.2e-07	simW=6e-07 fw=6e-07
MI390/I0/avD7_1	I390/I0/avC11	avC10#15	vdd!#86	vdd!#89
+ pmos1v#20ivpcell#20gpdk090	L=1e-07	W=4.8e-07
+ AD=2.88e-14	AS=1.344e-13	PD=6e-07	PS=1.52e-06	simW=4.8e-07 fw=4.8e-07
MI390/I0/avD7_2	I390/I0/avC7#6	CLK#214	I390/I0/avC11	vdd!#89
+ pmos1v#20ivpcell#20gpdk090	L=1e-07	W=4.8e-07
+ AD=1.344e-13	AS=2.88e-14	PD=1.52e-06	PS=6e-07	simW=4.8e-07 fw=4.8e-07
MI391/I1/avD7_1	avC18#11	avC8#91	I391/avC10#9	vdd!#89
+ pmos1v#20ivpcell#20gpdk090	L=1e-07	W=6e-07
+ AD=9.6e-14	AS=1.68e-13	PD=9.2e-07	PS=1.76e-06	simW=6e-07 fw=6e-07
MI391/I1/avD7_2	vdd!#138	Set#82	avC18#11	vdd!#89
+ pmos1v#20ivpcell#20gpdk090	L=1e-07	W=6e-07
+ AD=1.68e-13	AS=9.6e-14	PD=1.76e-06	PS=9.2e-07	simW=6e-07 fw=6e-07
MI391/I0/avD7_1	I391/I0/avC11	avC20#3	vdd!#121	vdd!#89
+ pmos1v#20ivpcell#20gpdk090	L=1e-07	W=4.8e-07
+ AD=2.88e-14	AS=1.344e-13	PD=6e-07	PS=1.52e-06	simW=4.8e-07 fw=4.8e-07
MI391/I0/avD7_2	I391/I0/avC7#6	CLK#182	I391/I0/avC11	vdd!#89
+ pmos1v#20ivpcell#20gpdk090	L=1e-07	W=4.8e-07
+ AD=1.344e-13	AS=2.88e-14	PD=1.52e-06	PS=6e-07	simW=4.8e-07 fw=4.8e-07
MI392/I1/avD7_1	avC15#11	avC8#80	I392/avC10#9	vdd!#89
+ pmos1v#20ivpcell#20gpdk090	L=1e-07	W=6e-07
+ AD=9.6e-14	AS=1.68e-13	PD=9.2e-07	PS=1.76e-06	simW=6e-07 fw=6e-07
MI392/I1/avD7_2	vdd!#163	Set#66	avC15#11	vdd!#89
+ pmos1v#20ivpcell#20gpdk090	L=1e-07	W=6e-07
+ AD=1.68e-13	AS=9.6e-14	PD=1.76e-06	PS=9.2e-07	simW=6e-07 fw=6e-07
MI392/I0/avD7_1	I392/I0/avC11	avC18#3	vdd!#144	vdd!#89
+ pmos1v#20ivpcell#20gpdk090	L=1e-07	W=4.8e-07
+ AD=2.88e-14	AS=1.344e-13	PD=6e-07	PS=1.52e-06	simW=4.8e-07 fw=4.8e-07
MI392/I0/avD7_2	I392/I0/avC7#6	CLK#154	I392/I0/avC11	vdd!#89
+ pmos1v#20ivpcell#20gpdk090	L=1e-07	W=4.8e-07
+ AD=1.344e-13	AS=2.88e-14	PD=1.52e-06	PS=6e-07	simW=4.8e-07 fw=4.8e-07
MI393/I1/avD7_1	avC14#11	avC8#60	I393/avC10#9	vdd!#89
+ pmos1v#20ivpcell#20gpdk090	L=1e-07	W=6e-07
+ AD=9.6e-14	AS=1.68e-13	PD=9.2e-07	PS=1.76e-06	simW=6e-07 fw=6e-07
MI393/I1/avD7_2	vdd!#189	Set#50	avC14#11	vdd!#89
+ pmos1v#20ivpcell#20gpdk090	L=1e-07	W=6e-07
+ AD=1.68e-13	AS=9.6e-14	PD=1.76e-06	PS=9.2e-07	simW=6e-07 fw=6e-07
MI393/I0/avD7_1	I393/I0/avC11	avC15#3	vdd!#166	vdd!#89
+ pmos1v#20ivpcell#20gpdk090	L=1e-07	W=4.8e-07
+ AD=2.88e-14	AS=1.344e-13	PD=6e-07	PS=1.52e-06	simW=4.8e-07 fw=4.8e-07
MI393/I0/avD7_2	I393/I0/avC7#6	CLK#123	I393/I0/avC11	vdd!#89
+ pmos1v#20ivpcell#20gpdk090	L=1e-07	W=4.8e-07
+ AD=1.344e-13	AS=2.88e-14	PD=1.52e-06	PS=6e-07	simW=4.8e-07 fw=4.8e-07
MI394/I1/avD7_1	avC13#11	avC8#33	I394/avC10#9	vdd!#89
+ pmos1v#20ivpcell#20gpdk090	L=1e-07	W=6e-07
+ AD=9.6e-14	AS=1.68e-13	PD=9.2e-07	PS=1.76e-06	simW=6e-07 fw=6e-07
MI394/I1/avD7_2	vdd!#223	Set#35	avC13#11	vdd!#89
+ pmos1v#20ivpcell#20gpdk090	L=1e-07	W=6e-07
+ AD=1.68e-13	AS=9.6e-14	PD=1.76e-06	PS=9.2e-07	simW=6e-07 fw=6e-07
MI394/I0/avD7_1	I394/I0/avC11	avC14#3	vdd!#195	vdd!#89
+ pmos1v#20ivpcell#20gpdk090	L=1e-07	W=4.8e-07
+ AD=2.88e-14	AS=1.344e-13	PD=6e-07	PS=1.52e-06	simW=4.8e-07 fw=4.8e-07
MI394/I0/avD7_2	I394/I0/avC7#6	CLK#59	I394/I0/avC11	vdd!#89
+ pmos1v#20ivpcell#20gpdk090	L=1e-07	W=4.8e-07
+ AD=1.344e-13	AS=2.88e-14	PD=1.52e-06	PS=6e-07	simW=4.8e-07 fw=4.8e-07
MI399/I1/avD7_1	avC12#11	avC8#19	I399/avC10#9	vdd!#89
+ pmos1v#20ivpcell#20gpdk090	L=1e-07	W=6e-07
+ AD=9.6e-14	AS=1.68e-13	PD=9.2e-07	PS=1.76e-06	simW=6e-07 fw=6e-07
MI399/I1/avD7_2	vdd!#249	Set#19	avC12#11	vdd!#89
+ pmos1v#20ivpcell#20gpdk090	L=1e-07	W=6e-07
+ AD=1.68e-13	AS=9.6e-14	PD=1.76e-06	PS=9.2e-07	simW=6e-07 fw=6e-07
MI399/I0/avD7_1	I399/I0/avC11	avC13#3	vdd!#229	vdd!#89
+ pmos1v#20ivpcell#20gpdk090	L=1e-07	W=4.8e-07
+ AD=2.88e-14	AS=1.344e-13	PD=6e-07	PS=1.52e-06	simW=4.8e-07 fw=4.8e-07
MI399/I0/avD7_2	I399/I0/avC7#6	CLK#42	I399/I0/avC11	vdd!#89
+ pmos1v#20ivpcell#20gpdk090	L=1e-07	W=4.8e-07
+ AD=1.344e-13	AS=2.88e-14	PD=1.52e-06	PS=6e-07	simW=4.8e-07 fw=4.8e-07
MI400/I1/avD7_1	avC11#5	avC8#3	I400/avC10#9	vdd!#89
+ pmos1v#20ivpcell#20gpdk090	L=1e-07	W=6e-07
+ AD=9.6e-14	AS=1.68e-13	PD=9.2e-07	PS=1.76e-06	simW=6e-07 fw=6e-07
MI400/I1/avD7_2	vdd!#265	Set#8	avC11#5	vdd!#89
+ pmos1v#20ivpcell#20gpdk090	L=1e-07	W=6e-07
+ AD=1.68e-13	AS=9.6e-14	PD=1.76e-06	PS=9.2e-07	simW=6e-07 fw=6e-07
MI400/I0/avD7_1	I400/I0/avC11	avC12#3	vdd!#252	vdd!#89
+ pmos1v#20ivpcell#20gpdk090	L=1e-07	W=4.8e-07
+ AD=2.88e-14	AS=1.344e-13	PD=6e-07	PS=1.52e-06	simW=4.8e-07 fw=4.8e-07
MI400/I0/avD7_2	I400/I0/avC7#6	CLK#7	I400/I0/avC11	vdd!#89
+ pmos1v#20ivpcell#20gpdk090	L=1e-07	W=4.8e-07
+ AD=1.344e-13	AS=2.88e-14	PD=1.52e-06	PS=6e-07	simW=4.8e-07 fw=4.8e-07
MI389/I1/avD7_1	avC10	avC8#118	I389/avC10#11	vdd!#89
+ pmos1v#20ivpcell#20gpdk090	L=1e-07	W=6e-07
+ AD=9.6e-14	AS=1.68e-13	PD=9.2e-07	PS=1.76e-06	simW=6e-07 fw=6e-07
MI389/I1/avD7_2	vdd!#93	Set#106	avC10	vdd!#89
+ pmos1v#20ivpcell#20gpdk090	L=1e-07	W=6e-07
+ AD=1.68e-13	AS=9.6e-14	PD=1.76e-06	PS=9.2e-07	simW=6e-07 fw=6e-07
MI389/I0/avD7_1	I389/I0/avC11	avC19#11	vdd!#108	vdd!#89
+ pmos1v#20ivpcell#20gpdk090	L=1e-07	W=4.8e-07
+ AD=2.88e-14	AS=1.344e-13	PD=6e-07	PS=1.52e-06	simW=4.8e-07 fw=4.8e-07
MI389/I0/avD7_2	I389/I0/avC7#4	CLK#190	I389/I0/avC11	vdd!#89
+ pmos1v#20ivpcell#20gpdk090	L=1e-07	W=4.8e-07
+ AD=1.344e-13	AS=2.88e-14	PD=1.52e-06	PS=6e-07	simW=4.8e-07 fw=4.8e-07
MI396/I1/avD7_1	avC19	avC8#98	I396/avC10#11	vdd!#89
+ pmos1v#20ivpcell#20gpdk090	L=1e-07	W=6e-07
+ AD=9.6e-14	AS=1.68e-13	PD=9.2e-07	PS=1.76e-06	simW=6e-07 fw=6e-07
MI396/I1/avD7_2	vdd!#112	Set#91	avC19	vdd!#89
+ pmos1v#20ivpcell#20gpdk090	L=1e-07	W=6e-07
+ AD=1.68e-13	AS=9.6e-14	PD=1.76e-06	PS=9.2e-07	simW=6e-07 fw=6e-07
MI396/I0/avD7_1	I396/I0/avC11	avC17#18	vdd!#134	vdd!#89
+ pmos1v#20ivpcell#20gpdk090	L=1e-07	W=4.8e-07
+ AD=2.88e-14	AS=1.344e-13	PD=6e-07	PS=1.52e-06	simW=4.8e-07 fw=4.8e-07
MI396/I0/avD7_2	I396/I0/avC7#4	CLK#158	I396/I0/avC11	vdd!#89
+ pmos1v#20ivpcell#20gpdk090	L=1e-07	W=4.8e-07
+ AD=1.344e-13	AS=2.88e-14	PD=1.52e-06	PS=6e-07	simW=4.8e-07 fw=4.8e-07
MI397/I1/avD7_1	avC16	avC8#68	I397/avC10#11	vdd!#89
+ pmos1v#20ivpcell#20gpdk090	L=1e-07	W=6e-07
+ AD=9.6e-14	AS=1.68e-13	PD=9.2e-07	PS=1.76e-06	simW=6e-07 fw=6e-07
MI397/I1/avD7_2	vdd!#157	Set#72	avC16	vdd!#89
+ pmos1v#20ivpcell#20gpdk090	L=1e-07	W=6e-07
+ AD=1.68e-13	AS=9.6e-14	PD=1.76e-06	PS=9.2e-07	simW=6e-07 fw=6e-07
MI397/I0/avD7_1	I397/I0/avC11	avC9#13	vdd!#179	vdd!#89
+ pmos1v#20ivpcell#20gpdk090	L=1e-07	W=4.8e-07
+ AD=2.88e-14	AS=1.344e-13	PD=6e-07	PS=1.52e-06	simW=4.8e-07 fw=4.8e-07
MI397/I0/avD7_2	I397/I0/avC7#4	CLK#119	I397/I0/avC11	vdd!#89
+ pmos1v#20ivpcell#20gpdk090	L=1e-07	W=4.8e-07
+ AD=1.344e-13	AS=2.88e-14	PD=1.52e-06	PS=6e-07	simW=4.8e-07 fw=4.8e-07
MI395/I1/avD7_1	avC9	avC8#26	I395/avC10#11	vdd!#89
+ pmos1v#20ivpcell#20gpdk090	L=1e-07	W=6e-07
+ AD=9.6e-14	AS=1.68e-13	PD=9.2e-07	PS=1.76e-06	simW=6e-07 fw=6e-07
MI395/I1/avD7_2	vdd!#220	Set#28	avC9	vdd!#89
+ pmos1v#20ivpcell#20gpdk090	L=1e-07	W=6e-07
+ AD=1.68e-13	AS=9.6e-14	PD=1.76e-06	PS=9.2e-07	simW=6e-07 fw=6e-07
MI395/I0/avD7_1	I395/I0/avC11	11_B0#12	vdd!#242	vdd!#89
+ pmos1v#20ivpcell#20gpdk090	L=1e-07	W=4.8e-07
+ AD=2.88e-14	AS=1.344e-13	PD=6e-07	PS=1.52e-06	simW=4.8e-07 fw=4.8e-07
MI395/I0/avD7_2	I395/I0/avC7#4	CLK#18	I395/I0/avC11	vdd!#89
+ pmos1v#20ivpcell#20gpdk090	L=1e-07	W=4.8e-07
+ AD=1.344e-13	AS=2.88e-14	PD=1.52e-06	PS=6e-07	simW=4.8e-07 fw=4.8e-07
MI390/I0/avD7_5	I390/avC10#18	avC7#199	I390/I0/avC9	vdd!#89
+ pmos1v#20ivpcell#20gpdk090	L=1e-07	W=8.4e-07
+ AD=1.344e-13	AS=2.352e-13	PD=1.16e-06	PS=2.24e-06	M=2	simW=8.4e-07 fw=8.4e-07
MI400/I0/avD7_5	I400/avC10#18	avC7#3	I400/I0/avC9	vdd!#89
+ pmos1v#20ivpcell#20gpdk090	L=1e-07	W=8.4e-07
+ AD=1.344e-13	AS=2.352e-13	PD=1.16e-06	PS=2.24e-06	M=2	simW=8.4e-07 fw=8.4e-07
MI392/I0/avD7_5	I392/avC10#18	avC7#146	I392/I0/avC9	vdd!#89
+ pmos1v#20ivpcell#20gpdk090	L=1e-07	W=8.4e-07
+ AD=1.344e-13	AS=2.352e-13	PD=1.16e-06	PS=2.24e-06	M=2	simW=8.4e-07 fw=8.4e-07
MI391/I0/avD7_5	I391/avC10#18	avC7#169	I391/I0/avC9	vdd!#89
+ pmos1v#20ivpcell#20gpdk090	L=1e-07	W=8.4e-07
+ AD=1.344e-13	AS=2.352e-13	PD=1.16e-06	PS=2.24e-06	M=2	simW=8.4e-07 fw=8.4e-07
MI395/I0/avD7_5	I395/avC10#3	avC7#31	I395/I0/avC9#5	vdd!#89
+ pmos1v#20ivpcell#20gpdk090	L=1e-07	W=8.4e-07
+ AD=1.344e-13	AS=2.352e-13	PD=1.16e-06	PS=2.24e-06	M=2	simW=8.4e-07 fw=8.4e-07
MI400/I0/avD7_3	I400/I0/avC9#12	I400/I0/avC7	vdd!	vdd!#89
+ pmos1v#20ivpcell#20gpdk090	L=1e-07	W=8.4e-07
+ AD=1.344e-13	AS=2.352e-13	PD=1.16e-06	PS=2.24e-06	M=2	simW=8.4e-07 fw=8.4e-07
MI395/I0/avD7_3	I395/I0/avC9#2	I395/I0/avC7	vdd!	vdd!#89
+ pmos1v#20ivpcell#20gpdk090	L=1e-07	W=8.4e-07
+ AD=1.344e-13	AS=2.352e-13	PD=1.16e-06	PS=2.24e-06	M=2	simW=8.4e-07 fw=8.4e-07
MI399/I0/avD7_3	I399/I0/avC9#12	I399/I0/avC7	vdd!	vdd!#89
+ pmos1v#20ivpcell#20gpdk090	L=1e-07	W=8.4e-07
+ AD=1.344e-13	AS=2.352e-13	PD=1.16e-06	PS=2.24e-06	M=2	simW=8.4e-07 fw=8.4e-07
MI17/avD7_1	avC7#46	CLK#69	vdd!	vdd!#89
+ pmos1v#20ivpcell#20gpdk090	L=1e-07	W=9.1e-07
+ AD=1.55527e-13	AS=1.55527e-13	PD=1.33455e-06	PS=1.33455e-06	M=11	simW=9.1e-07 fw=9.1e-07
MI394/I0/avD7_3	I394/I0/avC9#12	I394/I0/avC7	vdd!	vdd!#89
+ pmos1v#20ivpcell#20gpdk090	L=1e-07	W=8.4e-07
+ AD=1.344e-13	AS=2.352e-13	PD=1.16e-06	PS=2.24e-06	M=2	simW=8.4e-07 fw=8.4e-07
MI13/avD7_1	avC8#41	Set#51	vdd!	vdd!#89
+ pmos1v#20ivpcell#20gpdk090	L=1e-07	W=4.8e-07
+ AD=7.68e-14	AS=1.344e-13	PD=8e-07	PS=1.52e-06	M=2	simW=4.8e-07 fw=4.8e-07
MI397/I0/avD7_3	I397/I0/avC9#2	I397/I0/avC7	vdd!	vdd!#89
+ pmos1v#20ivpcell#20gpdk090	L=1e-07	W=8.4e-07
+ AD=1.344e-13	AS=2.352e-13	PD=1.16e-06	PS=2.24e-06	M=2	simW=8.4e-07 fw=8.4e-07
MI393/I0/avD7_3	I393/I0/avC9#12	I393/I0/avC7	vdd!	vdd!#89
+ pmos1v#20ivpcell#20gpdk090	L=1e-07	W=8.4e-07
+ AD=1.344e-13	AS=2.352e-13	PD=1.16e-06	PS=2.24e-06	M=2	simW=8.4e-07 fw=8.4e-07
MI389/I0/avD7_5	I389/avC10#3	avC7#204	I389/I0/avC9#5	vdd!#89
+ pmos1v#20ivpcell#20gpdk090	L=1e-07	W=8.4e-07
+ AD=1.344e-13	AS=2.352e-13	PD=1.16e-06	PS=2.24e-06	M=2	simW=8.4e-07 fw=8.4e-07
MI392/I0/avD7_3	I392/I0/avC9#12	I392/I0/avC7	vdd!	vdd!#89
+ pmos1v#20ivpcell#20gpdk090	L=1e-07	W=8.4e-07
+ AD=1.344e-13	AS=2.352e-13	PD=1.16e-06	PS=2.24e-06	M=2	simW=8.4e-07 fw=8.4e-07
MI396/I0/avD7_3	I396/I0/avC9#2	I396/I0/avC7	vdd!	vdd!#89
+ pmos1v#20ivpcell#20gpdk090	L=1e-07	W=8.4e-07
+ AD=1.344e-13	AS=2.352e-13	PD=1.16e-06	PS=2.24e-06	M=2	simW=8.4e-07 fw=8.4e-07
MI391/I0/avD7_3	I391/I0/avC9#12	I391/I0/avC7	vdd!	vdd!#89
+ pmos1v#20ivpcell#20gpdk090	L=1e-07	W=8.4e-07
+ AD=1.344e-13	AS=2.352e-13	PD=1.16e-06	PS=2.24e-06	M=2	simW=8.4e-07 fw=8.4e-07
MI389/I0/avD7_3	I389/I0/avC9#2	I389/I0/avC7	vdd!	vdd!#89
+ pmos1v#20ivpcell#20gpdk090	L=1e-07	W=8.4e-07
+ AD=1.344e-13	AS=2.352e-13	PD=1.16e-06	PS=2.24e-06	M=2	simW=8.4e-07 fw=8.4e-07
MI390/I0/avD7_3	I390/I0/avC9#12	I390/I0/avC7	vdd!	vdd!#89
+ pmos1v#20ivpcell#20gpdk090	L=1e-07	W=8.4e-07
+ AD=1.344e-13	AS=2.352e-13	PD=1.16e-06	PS=2.24e-06	M=2	simW=8.4e-07 fw=8.4e-07
MI399/I0/avD7_5	I399/avC10#18	avC7#26	I399/I0/avC9	vdd!#89
+ pmos1v#20ivpcell#20gpdk090	L=1e-07	W=8.4e-07
+ AD=1.344e-13	AS=2.352e-13	PD=1.16e-06	PS=2.24e-06	M=2	simW=8.4e-07 fw=8.4e-07
MI397/I0/avD7_5	I397/avC10#3	avC7#139	I397/I0/avC9#5	vdd!#89
+ pmos1v#20ivpcell#20gpdk090	L=1e-07	W=8.4e-07
+ AD=1.344e-13	AS=2.352e-13	PD=1.16e-06	PS=2.24e-06	M=2	simW=8.4e-07 fw=8.4e-07
MI393/I0/avD7_5	I393/avC10#18	avC7#121	I393/I0/avC9	vdd!#89
+ pmos1v#20ivpcell#20gpdk090	L=1e-07	W=8.4e-07
+ AD=1.344e-13	AS=2.352e-13	PD=1.16e-06	PS=2.24e-06	M=2	simW=8.4e-07 fw=8.4e-07
MI394/I0/avD7_5	I394/avC10#18	avC7#69	I394/I0/avC9	vdd!#89
+ pmos1v#20ivpcell#20gpdk090	L=1e-07	W=8.4e-07
+ AD=1.344e-13	AS=2.352e-13	PD=1.16e-06	PS=2.24e-06	M=2	simW=8.4e-07 fw=8.4e-07
MI396/I0/avD7_5	I396/avC10#3	avC7#174	I396/I0/avC9#5	vdd!#89
+ pmos1v#20ivpcell#20gpdk090	L=1e-07	W=8.4e-07
+ AD=1.344e-13	AS=2.352e-13	PD=1.16e-06	PS=2.24e-06	M=2	simW=8.4e-07 fw=8.4e-07
*
*
*       RESISTOR AND CAP/DIODE CARDS
*
Re1	Set#9	Set#10	    2.5867	$mt5	$X=-5.46 $Y=3.3375
Re4	Set#20	Set#13	    2.5867	$mt5	$X=-0.22 $Y=3.3375
Re9	Set#29	Set#36	    2.5865	$mt5	$X=5.02 $Y=3.3375
Re12	Set#41	Set#52	    2.5865	$mt5	$X=10.26 $Y=3.3375
Re16	Set#57	Set#59	    2.5865	$mt5	$X=15.5 $Y=3.3375
Re20	Set#83	Set#84	    2.5865	$mt5	$X=20.74 $Y=3.3375
Re25	Set#87	Set#102	    2.5865	$mt5	$X=25.98 $Y=3.3375
Re3	avC7#14	avC7#15	    2.1060	$mt5
+ $X=-1.53 $Y=4.375
Re6	avC7#35	avC7#34	    2.6546	$mt5
+ $X=1.53 $Y=2.345
Re8	avC7#44	avC7#45	    2.1060	$mt5
+ $X=3.71 $Y=4.375
Re11	avC7#94	avC7#95	    2.1060	$mt5
+ $X=8.95 $Y=4.375
Re14	avC7#127	avC7#126	    2.6546	$mt5
+ $X=13.27 $Y=2.345
Re15	avC7#142	avC7#143	    2.1060	$mt5
+ $X=14.19 $Y=4.375
Re19	avC7#156	avC7#158	    2.1060	$mt5
+ $X=19.43 $Y=4.375
Re22	avC7#178	avC7#177	    2.6546	$mt5
+ $X=22.49 $Y=2.345
Re24	avC7#187	avC7#188	    2.1060	$mt5
+ $X=24.67 $Y=4.375
Re27	avC7#208	avC7#207	    2.6546	$mt5
+ $X=27.73 $Y=2.345
Re29	avC7#217	avC7#218	    0.7060	$mt5
+ $X=29.91 $Y=4.375
Re2	avC8#9	avC8#10	    1.6298	$mt5	$X=-4.23 $Y=4.4325
Re5	avC8#15	avC8#17	    1.6298	$mt5
+ $X=1.01 $Y=4.4325
Re7	avC8#30	avC8#29	    2.5979	$mt5
+ $X=4.23 $Y=2.7275
Re10	avC8#39	avC8#40	    1.6298	$mt5
+ $X=6.25 $Y=4.4325
Re13	avC8#58	avC8#62	    1.6298	$mt5
+ $X=11.49 $Y=4.4325
Re17	avC8#72	avC8#71	    2.5979	$mt5
+ $X=15.97 $Y=2.7275
Re18	avC8#78	avC8#82	    1.6298	$mt5
+ $X=16.73 $Y=4.4325
Re21	avC8#87	avC8#89	    1.6298	$mt5
+ $X=21.97 $Y=4.4325
Re23	avC8#102	avC8#101	    2.5979	$mt5
+ $X=25.19 $Y=2.7275
Re26	avC8#107	avC8#109	    1.6298	$mt5
+ $X=27.21 $Y=4.4325
Re28	avC8#122	avC8#121	    1.1979	$mt5
+ $X=30.43 $Y=2.7275
Rf20	11_B0#19	11_B0#3	    6.4296	$mt4
+ $X=8.7705 $Y=0.7075
Rf14	avC9#18	avC9#10	    3.1495	$mt4	$X=8.2975 $Y=3
Rf30	CLK#211	CLK#207	    2.1465	$mt4
+ $X=28.823 $Y=2.3975
Rf31	CLK#207	CLK#181	    0.7186	$mt4
+ $X=26.198 $Y=2.3975
Rf32	CLK#181	CLK#175	    0.7437	$mt4
+ $X=23.578 $Y=2.3975
Rf33	CLK#175	CLK#156	    0.7186	$mt4
+ $X=20.958 $Y=2.3975
Rf34	CLK#156	CLK#132	    1.4623	$mt4
+ $X=17.0505 $Y=2.3975
Rf35	CLK#132	CLK#137	    0.3809	$mt4
+ $X=13.748 $Y=2.3975
Rf36	CLK#137	CLK#68	    1.0814	$mt4	$X=11.128 $Y=2.3975
Rf37	CLK#68	CLK#51	    0.9726	$mt4	$X=7.448 $Y=2.3975
Rf38	CLK#51	CLK#41	    0.4898	$mt4	$X=4.828 $Y=2.3975
Rf39	CLK#41	CLK#35	    0.7591	$mt4	$X=2.5905 $Y=2.3975
Rf40	CLK#35	CLK#16	    0.7033	$mt4	$X=-0.0295 $Y=2.3975
Rf1	Set#2	Set#9	    1.4000	$mt4	$X=-5.46 $Y=4.73
Rf4	Set#12	Set#13	    1.4000	$mt4	$X=-0.22 $Y=4.73
Rf9	Set#25	Set#29	    1.4000	$mt4	$X=5.02 $Y=4.73
Rf12	Set#39	Set#41	    1.4000	$mt4	$X=10.26 $Y=4.73
Rf17	Set#58	Set#57	    2.8000	$mt4	$X=15.5 $Y=4.73
Rf22	Set#76	Set#83	    1.4000	$mt4	$X=20.74 $Y=4.73
Rf27	Set#86	Set#87	    1.4000	$mt4	$X=25.98 $Y=4.73
Rf65	Set#110	Set#96	    1.4958	$mt4	$X=29.0955 $Y=1.9475
Rf66	Set#96	Set#102	    0.1214	$mt4	$X=26.198 $Y=1.9475
Rf67	Set#102	Set#84	    1.4623	$mt4	$X=23.3605 $Y=1.9475
Rf68	Set#73	Set#84	    0.9865	$mt4	$X=18.973 $Y=1.9475
Rf69	Set#73	Set#59	    0.4758	$mt4	$X=16.353 $Y=1.9475
Rf70	Set#45	Set#59	    1.3633	$mt4	$X=13.058 $Y=1.9475
Rf71	Set#45	Set#52	9.907e-02	$mt4	$X=10.438 $Y=1.9475
Rf72	Set#38	Set#52	    1.1595	$mt4	$X=8.183 $Y=1.9475
Rf73	Set#38	Set#36	    0.3028	$mt4	$X=5.563 $Y=1.9475
Rf74	Set#36	Set#20	    1.4609	$mt4	$X=2.403 $Y=1.9475
Rf75	Set#20	Set#10	    1.4651	$mt4	$X=-2.8395 $Y=1.9475
Rf3	avC7#13	avC7#14	    0.4667	$mt4
+ $X=-1.12 $Y=5.015
Rf6	avC7#30	avC7#34	    0.4667	$mt4
+ $X=1.12 $Y=1.065
Rf8	avC7#38	avC7#44	    0.4667	$mt4
+ $X=4.12 $Y=5.015
Rf11	avC7#93	avC7#94	    0.4667	$mt4
+ $X=9.36 $Y=5.015
Rf15	avC7#125	avC7#126	    0.9333	$mt4
+ $X=12.86 $Y=1.065
Rf16	avC7#138	avC7#142	    0.4667	$mt4
+ $X=14.6 $Y=5.015
Rf21	avC7#157	avC7#156	    0.9333	$mt4
+ $X=19.84 $Y=5.015
Rf24	avC7#173	avC7#177	    0.4667	$mt4
+ $X=22.08 $Y=1.065
Rf26	avC7#181	avC7#187	    0.4667	$mt4
+ $X=25.08 $Y=5.015
Rf29	avC7#203	avC7#207	    0.4667	$mt4
+ $X=27.32 $Y=1.065
Rf42	avC7#211	avC7#217	    0.4667	$mt4
+ $X=30.32 $Y=5.015
Rf54	avC7#218	avC7#208	    2.0084	$mt4
+ $X=28.8205 $Y=3.6825
Rf55	avC7#208	avC7#188	    0.8540	$mt4
+ $X=26.2005 $Y=3.6825
Rf56	avC7#188	avC7#178	    0.6084	$mt4
+ $X=23.5805 $Y=3.6825
Rf57	avC7#178	avC7#158	    0.8540	$mt4
+ $X=20.9605 $Y=3.6825
Rf58	avC7#158	avC7#143	    1.4623	$mt4
+ $X=16.8105 $Y=3.6825
Rf59	avC7#143	avC7#127	    0.2567	$mt4
+ $X=13.7305 $Y=3.6825
Rf60	avC7#113	avC7#127	    0.8777	$mt4
+ $X=11.698 $Y=3.6825
Rf61	avC7#113	avC7#95	    0.3279	$mt4
+ $X=9.538 $Y=3.6825
Rf62	avC7#95	avC7#45	    1.4623	$mt4
+ $X=6.3305 $Y=3.6825
Rf63	avC7#45	avC7#35	    0.6084	$mt4
+ $X=2.6205 $Y=3.6825
Rf64	avC7#35	avC7#15	    0.8540	$mt4
+ $X=0.0005 $Y=3.6825
Rf2	avC8#8	avC8#9	    1.4000	$mt4	$X=-4.095 $Y=4.71
Rf5	avC8#14	avC8#15	    2.8000	$mt4
+ $X=1.145 $Y=4.71
Rf7	avC8#25	avC8#29	    1.4000	$mt4	$X=4.09 $Y=1.35
Rf10	avC8#38	avC8#39	    1.4000	$mt4
+ $X=6.385 $Y=4.71
Rf13	avC8#57	avC8#58	    1.4000	$mt4
+ $X=11.625 $Y=4.71
Rf18	avC8#67	avC8#71	    1.4000	$mt4
+ $X=15.83 $Y=1.35
Rf19	avC8#77	avC8#78	    1.4000	$mt4
+ $X=16.865 $Y=4.71
Rf23	avC8#86	avC8#87	    2.8000	$mt4
+ $X=22.105 $Y=4.71
Rf25	avC8#97	avC8#101	    1.4000	$mt4
+ $X=25.05 $Y=1.35
Rf28	avC8#106	avC8#107	    2.8000	$mt4
+ $X=27.345 $Y=4.71
Rf41	avC8#117	avC8#121	    1.4000	$mt4
+ $X=30.29 $Y=1.35
Rf43	avC8#122	avC8#109	    2.2986	$mt4
+ $X=28.8205 $Y=4.1325
Rf44	avC8#109	avC8#102	    0.5637	$mt4
+ $X=26.2005 $Y=4.1325
Rf45	avC8#102	avC8#89	    0.8986	$mt4
+ $X=23.5805 $Y=4.1325
Rf46	avC8#89	avC8#82	    1.4623	$mt4
+ $X=19.3505 $Y=4.1325
Rf47	avC8#82	avC8#72	    0.2121	$mt4
+ $X=16.3505 $Y=4.1325
Rf48	avC8#56	avC8#72	    1.2112	$mt4
+ $X=13.8005 $Y=4.1325
Rf49	avC8#56	avC8#62	3.907e-02	$mt4
+ $X=11.56 $Y=4.13
Rf50	avC8#62	avC8#40	    1.4623	$mt4
+ $X=8.8705 $Y=4.1325
Rf51	avC8#40	avC8#30	    0.5637	$mt4
+ $X=5.2405 $Y=4.1325
Rf52	avC8#30	avC8#17	    0.8986	$mt4
+ $X=2.6205 $Y=4.1325
Rf53	avC8#17	avC8#10	    1.4623	$mt4
+ $X=-1.6095 $Y=4.1325
Rg13	11_B0#3	11_B0#1	    1.4000	$mt3	$X=0.135 $Y=1.2
Rg68	11_B0#18	11_B0#19	    1.7060	$mt3
+ $X=17.585 $Y=1.07
Rg28	avC9#9	avC9#10	    1.4000	$mt3	$X=4.615 $Y=3.005
Rg49	avC9#18	avC9#12	    2.1772	$mt3
+ $X=11.98 $Y=2.085
Rg109	avC10#13	avC10#9	    1.2087	$mt3
+ $X=31.2 $Y=4.6325
Rg4	avC11#9	avC11#10	    0.9737	$mt3
+ $X=-4.57 $Y=2.3275
Rg69	I398/avC7#10	I398/avC7#9	    0.5329	$mt3
+ $X=18.18 $Y=1.41
Rg2	vdd!#3	vdd!#1	    1.8295	$mt3	$X=-4.98 $Y=4.685
Rg5	vdd!#7	vdd!#8	    0.1520	$mt3	$X=-4.14 $Y=5.3005
Rg12	vdd!#11	vdd!#10	    1.8295	$mt3
+ $X=0.26 $Y=4.685
Rg15	vdd!#15	vdd!#16	    0.1520	$mt3
+ $X=1.1 $Y=5.3005
Rg21	vdd!#21	vdd!#20	    1.5520	$mt3
+ $X=4.14 $Y=0.7805
Rg29	vdd!#22	vdd!#24	    0.4295	$mt3
+ $X=4.98 $Y=1.395
Rg31	vdd!#27	vdd!#26	    1.8295	$mt3	$X=5.5 $Y=4.685
Rg35	vdd!#31	vdd!#32	    0.1520	$mt3
+ $X=6.34 $Y=5.3005
Rg44	vdd!#35	vdd!#34	    1.8295	$mt3
+ $X=10.74 $Y=4.685
Rg46	vdd!#39	vdd!#40	    0.1520	$mt3
+ $X=11.58 $Y=5.3005
Rg59	vdd!#47	vdd!#44	    1.5520	$mt3
+ $X=15.88 $Y=0.7805
Rg61	vdd!#48	vdd!#46	    1.8295	$mt3
+ $X=15.98 $Y=4.685
Rg64	vdd!#52	vdd!#54	    0.4295	$mt3
+ $X=16.72 $Y=1.395
Rg65	vdd!#55	vdd!#56	    0.1520	$mt3
+ $X=16.82 $Y=5.3005
Rg75	vdd!#59	vdd!#57	    1.8295	$mt3
+ $X=21.22 $Y=4.685
Rg77	vdd!#60	vdd!#61	    2.9520	$mt3
+ $X=22.06 $Y=5.3005
Rg83	vdd!#69	vdd!#68	    1.5520	$mt3
+ $X=25.1 $Y=0.7805
Rg90	vdd!#70	vdd!#72	    0.4295	$mt3
+ $X=25.94 $Y=1.395
Rg93	vdd!#75	vdd!#73	    1.8295	$mt3
+ $X=26.46 $Y=4.685
Rg95	vdd!#76	vdd!#77	    2.9520	$mt3
+ $X=27.3 $Y=5.3005
Rg101	vdd!#85	vdd!#84	    1.5520	$mt3
+ $X=30.34 $Y=0.7805
Rg108	vdd!#267	vdd!#268	    0.4295	$mt3
+ $X=31.18 $Y=1.395
Rg7	CLK#15	CLK#14	    0.1899	$mt3	$X=-1.052 $Y=4.725
Rg8	CLK#15	CLK#3	    0.9199	$mt3	$X=-2.44 $Y=4.725
Rg9	CLK#15	CLK#16	    2.3698	$mt3	$X=-1.29 $Y=3.5875
Rg18	CLK#34	CLK#31	    0.9439	$mt3	$X=2.4105 $Y=1.355
Rg19	CLK#34	CLK#24	    0.1659	$mt3	$X=1.0225 $Y=1.355
Rg20	CLK#34	CLK#35	    1.8169	$mt3	$X=1.23 $Y=1.8475
Rg23	CLK#40	CLK#39	    1.5899	$mt3	$X=4.188 $Y=4.725
Rg24	CLK#40	CLK#26	    0.9199	$mt3	$X=2.8 $Y=4.725
Rg25	CLK#40	CLK#41	    2.3698	$mt3	$X=3.95 $Y=3.5875
Rg32	CLK#51	CLK#50	    1.8645	$mt3	$X=5.705 $Y=1.845
Rg37	CLK#67	CLK#66	    0.1899	$mt3	$X=9.428 $Y=4.725
Rg38	CLK#67	CLK#54	    0.9199	$mt3	$X=8.04 $Y=4.725
Rg39	CLK#67	CLK#68	    2.3698	$mt3	$X=9.19 $Y=3.5875
Rg51	CLK#131	CLK#130	    0.1899	$mt3
+ $X=14.668 $Y=4.725
Rg52	CLK#131	CLK#111	    0.9199	$mt3
+ $X=13.28 $Y=4.725
Rg53	CLK#131	CLK#132	    2.3698	$mt3
+ $X=14.43 $Y=3.5875
Rg55	CLK#136	CLK#133	    0.9059	$mt3
+ $X=14.198 $Y=1.355
Rg56	CLK#136	CLK#118	    0.2039	$mt3
+ $X=12.81 $Y=1.355
Rg57	CLK#136	CLK#137	    1.8169	$mt3
+ $X=13.065 $Y=1.8475
Rg70	CLK#155	CLK#153	    0.1899	$mt3
+ $X=19.908 $Y=4.725
Rg71	CLK#155	CLK#143	    0.9199	$mt3
+ $X=18.52 $Y=4.725
Rg72	CLK#155	CLK#156	    2.3698	$mt3
+ $X=19.67 $Y=3.5875
Rg80	CLK#174	CLK#171	    0.9219	$mt3
+ $X=23.398 $Y=1.355
Rg81	CLK#174	CLK#164	    0.1879	$mt3
+ $X=22.01 $Y=1.355
Rg82	CLK#174	CLK#175	    1.8169	$mt3
+ $X=22.245 $Y=1.8475
Rg85	CLK#180	CLK#179	    1.5899	$mt3
+ $X=25.148 $Y=4.725
Rg86	CLK#180	CLK#166	    0.9199	$mt3
+ $X=23.76 $Y=4.725
Rg87	CLK#180	CLK#181	    2.3698	$mt3
+ $X=24.91 $Y=3.5875
Rg98	CLK#206	CLK#203	    0.9219	$mt3
+ $X=28.638 $Y=1.355
Rg99	CLK#206	CLK#196	    0.1879	$mt3
+ $X=27.25 $Y=1.355
Rg100	CLK#206	CLK#207	    1.8169	$mt3
+ $X=27.485 $Y=1.8475
Rg103	CLK#213	CLK#212	    1.5859	$mt3
+ $X=30.393 $Y=4.725
Rg104	CLK#213	CLK#198	    0.9239	$mt3
+ $X=29.005 $Y=4.725
Rg105	CLK#213	CLK#211	    0.9697	$mt3
+ $X=30.16 $Y=3.5875
Rg1	Set#2	Set#1	    2.8000	$mt3	$X=-5.46 $Y=4.73
Rg11	Set#12	Set#11	    2.8000	$mt3	$X=-0.22 $Y=4.73
Rg30	Set#25	Set#24	    2.8000	$mt3	$X=5.02 $Y=4.73
Rg34	Set#38	Set#37	    1.7122	$mt3	$X=6.105 $Y=2.3175
Rg42	Set#39	Set#40	    2.8000	$mt3	$X=10.26 $Y=4.73
Rg43	Set#45	Set#42	    1.7101	$mt3	$X=10.615 $Y=1.575
Rg58	Set#58	Set#60	    1.4000	$mt3	$X=15.5 $Y=4.73
Rg67	Set#73	Set#74	    3.0502	$mt3	$X=17.2 $Y=1.645
Rg74	Set#76	Set#75	    2.8000	$mt3	$X=20.74 $Y=4.73
Rg91	Set#86	Set#85	    2.8000	$mt3	$X=25.98 $Y=4.73
Rg92	Set#96	Set#94	    1.4000	$mt3	$X=26.415 $Y=1.945
Rg110	Set#110	Set#109	    1.4000	$mt3
+ $X=31.775 $Y=1.945
Rg10	avC7#13	avC7#12	    0.9333	$mt3
+ $X=-1.12 $Y=5.015
Rg17	avC7#30	avC7#22	    0.9333	$mt3
+ $X=1.12 $Y=1.065
Rg26	avC7#38	avC7#37	    0.9333	$mt3
+ $X=4.12 $Y=5.015
Rg40	avC7#93	avC7#92	    0.9333	$mt3
+ $X=9.36 $Y=5.015
Rg41	avC7#113	avC7#110	    3.7918	$mt3
+ $X=10.125 $Y=2.58
Rg50	avC7#125	avC7#128	    0.4667	$mt3
+ $X=12.86 $Y=1.065
Rg54	avC7#138	avC7#137	    0.9333	$mt3
+ $X=14.6 $Y=5.015
Rg73	avC7#157	avC7#154	    0.4667	$mt3
+ $X=19.84 $Y=5.015
Rg79	avC7#173	avC7#165	    0.9333	$mt3
+ $X=22.08 $Y=1.065
Rg88	avC7#181	avC7#180	    0.9333	$mt3
+ $X=25.08 $Y=5.015
Rg97	avC7#203	avC7#195	    0.9333	$mt3
+ $X=27.32 $Y=1.065
Rg106	avC7#211	avC7#210	    0.9333	$mt3
+ $X=30.32 $Y=5.015
Rg6	avC8#8	avC8#7	    1.4000	$mt3	$X=-4.095 $Y=4.71
Rg22	avC8#25	avC8#24	    1.4000	$mt3	$X=4.09 $Y=1.35
Rg36	avC8#38	avC8#37	    1.4000	$mt3
+ $X=6.385 $Y=4.71
Rg47	avC8#56	avC8#52	    4.0429	$mt3
+ $X=11.635 $Y=2.6625
Rg48	avC8#57	avC8#55	    1.4000	$mt3
+ $X=11.625 $Y=4.71
Rg60	avC8#67	avC8#66	    1.4000	$mt3
+ $X=15.83 $Y=1.35
Rg66	avC8#77	avC8#76	    1.4000	$mt3
+ $X=16.865 $Y=4.71
Rg84	avC8#97	avC8#96	    1.4000	$mt3
+ $X=25.05 $Y=1.35
Rg102	avC8#117	avC8#116	    1.4000	$mt3
+ $X=30.29 $Y=1.35
Rg94	I390/avC10#5	I390/avC10#6	    1.9117	$mt3
+ $X=26.76 $Y=4.965
Rg76	I391/avC10#5	I391/avC10#6	    1.9117	$mt3
+ $X=21.52 $Y=4.965
Rg62	I392/avC10#5	I392/avC10#6	    1.9117	$mt3
+ $X=16.28 $Y=4.965
Rg45	I393/avC10#5	I393/avC10#6	    1.9117	$mt3
+ $X=11.04 $Y=4.965
Rg33	I394/avC10#6	I394/avC10#5	    3.3117	$mt3	$X=5.8 $Y=4.965
Rg14	I399/avC10#5	I399/avC10#6	    1.9117	$mt3
+ $X=0.56 $Y=4.965
Rg3	I400/avC10#5	I400/avC10#6	    1.9117	$mt3
+ $X=-4.68 $Y=4.965
Rg107	I389/avC10#14	I389/avC10#15	    1.9117	$mt3
+ $X=30.88 $Y=1.115
Rg89	I396/avC10#14	I396/avC10#15	    1.9117	$mt3
+ $X=25.64 $Y=1.115
Rg63	I397/avC10#14	I397/avC10#15	    1.9117	$mt3
+ $X=16.42 $Y=1.115
Rg27	I395/avC10#14	I395/avC10#15	    1.9117	$mt3
+ $X=4.68 $Y=1.115
Rh19	11_B0#1	11_B0#2	    2.8000	$mt2	$X=0.135 $Y=1.2
Rh129	11_B0#15	11_B0#18	    1.4000	$mt2
+ $X=17.59 $Y=1.435
Rh43	avC9#8	avC9#9	    1.5405	$mt2	$X=4.56 $Y=2.817
Rh97	avC9#11	avC9#12	    2.8000	$mt2
+ $X=11.98 $Y=1.17
Rh136	avC17#11	avC17#3	    1.7650	$mt2
+ $X=19.3155 $Y=0.78
Rh140	avC17#13	avC17#12	    1.5788	$mt2
+ $X=20.138 $Y=1.92
Rh141	avC17#12	avC17#4	    1.5863	$mt2
+ $X=19.408 $Y=1.92
Rh196	avC10#4	avC10#9	    1.4000	$mt2
+ $X=30.76 $Y=2.38
Rh200	avC10#10	avC10#13	    1.4000	$mt2	$X=31.2 $Y=4.91
Rh4	avC11#8	avC11#9	    1.4000	$mt2
+ $X=-4.56 $Y=3.495
Rh5	avC11#10	avC11#11	    2.8000	$mt2	$X=-4.57 $Y=1.2
Rh132	I398/avC7#8	I398/avC7#9	    1.4000	$mt2
+ $X=18.18 $Y=0.78
Rh133	I398/avC7#10	I398/avC7#2	    3.0072	$mt2
+ $X=17.93 $Y=2.04
Rh1	vdd!#2	vdd!#1	    1.4000	$mt2	$X=-4.98 $Y=4.085
Rh6	vdd!#5	vdd!#7	    2.8000	$mt2	$X=-4.14 $Y=5.49
Rh7	vdd!#8	vdd!#3	    1.7531	$mt2	$X=-4.56 $Y=5.115
Rh18	vdd!#9	vdd!#10	    1.4000	$mt2	$X=0.26 $Y=4.085
Rh23	vdd!#13	vdd!#15	    2.8000	$mt2	$X=1.1 $Y=5.49
Rh24	vdd!#16	vdd!#11	    1.7531	$mt2
+ $X=0.68 $Y=5.115
Rh39	vdd!#18	vdd!#20	    2.8000	$mt2	$X=4.14 $Y=0.59
Rh46	vdd!#23	vdd!#22	    1.4000	$mt2
+ $X=4.98 $Y=1.995
Rh47	vdd!#24	vdd!#21	    1.7531	$mt2
+ $X=4.56 $Y=0.965
Rh49	vdd!#25	vdd!#26	    1.4000	$mt2	$X=5.5 $Y=4.085
Rh54	vdd!#29	vdd!#31	    2.8000	$mt2	$X=6.34 $Y=5.49
Rh55	vdd!#32	vdd!#27	    1.7531	$mt2
+ $X=5.92 $Y=5.115
Rh85	vdd!#33	vdd!#34	    1.4000	$mt2
+ $X=10.74 $Y=4.085
Rh93	vdd!#37	vdd!#39	    2.8000	$mt2
+ $X=11.58 $Y=5.49
Rh94	vdd!#40	vdd!#35	    1.7531	$mt2
+ $X=11.16 $Y=5.115
Rh114	vdd!#42	vdd!#44	    2.8000	$mt2
+ $X=15.88 $Y=0.59
Rh116	vdd!#45	vdd!#46	    1.4000	$mt2
+ $X=15.98 $Y=4.085
Rh120	vdd!#53	vdd!#52	    1.4000	$mt2
+ $X=16.72 $Y=1.995
Rh121	vdd!#54	vdd!#47	    1.7531	$mt2
+ $X=16.3 $Y=0.965
Rh123	vdd!#50	vdd!#55	    2.8000	$mt2
+ $X=16.82 $Y=5.49
Rh124	vdd!#56	vdd!#48	    1.7531	$mt2
+ $X=16.4 $Y=5.115
Rh142	vdd!#58	vdd!#57	    1.4000	$mt2
+ $X=21.22 $Y=4.085
Rh146	vdd!#63	vdd!#60	    1.4000	$mt2
+ $X=22.06 $Y=5.49
Rh147	vdd!#61	vdd!#59	    0.3531	$mt2
+ $X=21.64 $Y=5.115
Rh162	vdd!#66	vdd!#68	    2.8000	$mt2	$X=25.1 $Y=0.59
Rh168	vdd!#71	vdd!#70	    1.4000	$mt2
+ $X=25.94 $Y=1.995
Rh169	vdd!#72	vdd!#69	    1.7531	$mt2
+ $X=25.52 $Y=0.965
Rh172	vdd!#74	vdd!#73	    1.4000	$mt2
+ $X=26.46 $Y=4.085
Rh176	vdd!#79	vdd!#76	    1.4000	$mt2	$X=27.3 $Y=5.49
Rh177	vdd!#77	vdd!#75	    0.3531	$mt2
+ $X=26.88 $Y=5.115
Rh192	vdd!#82	vdd!#84	    2.8000	$mt2
+ $X=30.34 $Y=0.59
Rh199	vdd!#92	vdd!#267	    1.4000	$mt2
+ $X=31.18 $Y=1.995
Rh201	vdd!#268	vdd!#85	    1.7531	$mt2
+ $X=30.76 $Y=0.965
Rh10	CLK#2	CLK#3	    1.5055	$mt2	$X=-3.5975 $Y=4.8705
Rh17	CLK#13	CLK#14	    2.8000	$mt2	$X=-0.81 $Y=4.725
Rh22	CLK#20	CLK#24	    2.8000	$mt2	$X=0.81 $Y=1.355
Rh27	CLK#25	CLK#26	    2.9055	$mt2	$X=1.6425 $Y=4.8705
Rh35	CLK#32	CLK#31	    2.9055	$mt2	$X=3.5975 $Y=1.2105
Rh44	CLK#48	CLK#39	    1.4000	$mt2	$X=4.43 $Y=4.725
Rh51	CLK	CLK#50	    2.8000	$mt2	$X=5.7 $Y=1.295
Rh58	CLK#53	CLK#54	    1.5055	$mt2	$X=6.8825 $Y=4.8705
Rh65	CLK#65	CLK#66	    2.8000	$mt2	$X=9.67 $Y=4.725
Rh98	CLK#110	CLK#111	    1.5055	$mt2
+ $X=12.1225 $Y=4.8705
Rh100	CLK#113	CLK#118	    2.8000	$mt2
+ $X=12.55 $Y=1.355
Rh109	CLK#129	CLK#130	    2.8000	$mt2
+ $X=14.91 $Y=4.725
Rh110	CLK#134	CLK#133	    2.9055	$mt2
+ $X=15.3375 $Y=1.2105
Rh128	CLK#142	CLK#143	    1.5055	$mt2
+ $X=17.3625 $Y=4.8705
Rh139	CLK#152	CLK#153	    2.8000	$mt2
+ $X=20.15 $Y=4.725
Rh145	CLK#160	CLK#164	    2.8000	$mt2
+ $X=21.77 $Y=1.355
Rh150	CLK#165	CLK#166	    2.9055	$mt2
+ $X=22.6025 $Y=4.8705
Rh158	CLK#172	CLK#171	    2.9055	$mt2
+ $X=24.5575 $Y=1.2105
Rh166	CLK#188	CLK#179	    1.4000	$mt2
+ $X=25.39 $Y=4.725
Rh175	CLK#192	CLK#196	    2.8000	$mt2
+ $X=27.01 $Y=1.355
Rh180	CLK#197	CLK#198	    2.9055	$mt2
+ $X=27.8425 $Y=4.8705
Rh188	CLK#204	CLK#203	    2.9055	$mt2
+ $X=29.7975 $Y=1.2105
Rh197	CLK#220	CLK#212	    1.4000	$mt2
+ $X=30.63 $Y=4.725
Rh2	Set#3	Set#1	    1.6040	$mt2	$X=-5.2045 $Y=4.73
Rh20	Set#14	Set#11	    1.6040	$mt2	$X=0.0355 $Y=4.73
Rh50	Set#32	Set#24	    0.2040	$mt2	$X=5.2755 $Y=4.73
Rh53	Set#23	Set#37	    2.1812	$mt2	$X=5.4 $Y=2.125
Rh84	Set#43	Set#42	    2.8000	$mt2	$X=10.615 $Y=1.205
Rh86	Set#44	Set#40	    1.6040	$mt2	$X=10.5155 $Y=4.73
Rh117	Set#63	Set#60	    0.2040	$mt2	$X=15.7555 $Y=4.73
Rh127	Set#67	Set#74	    0.2040	$mt2	$X=16.9455 $Y=1.345
Rh143	Set#77	Set#75	    1.6040	$mt2	$X=20.9955 $Y=4.73
Rh171	Set#93	Set#94	    1.5745	$mt2	$X=26.415 $Y=1.6925
Rh173	Set#95	Set#85	    1.6040	$mt2	$X=26.2355 $Y=4.73
Rh203	Set#108	Set#109	    1.5745	$mt2
+ $X=31.775 $Y=1.6925
Rh15	avC7#9	avC7#12	    1.5170	$mt2	$X=-1.0125 $Y=5.015
Rh16	avC7#2	avC7#12	    0.7739	$mt2	$X=-2.0825 $Y=5.01
Rh31	avC7#20	avC7#22	    1.5170	$mt2
+ $X=1.0125 $Y=1.065
Rh32	avC7#23	avC7#22	    0.7739	$mt2
+ $X=2.0825 $Y=1.07
Rh41	avC7#36	avC7#37	    1.5170	$mt2
+ $X=4.2275 $Y=5.015
Rh42	avC7#25	avC7#37	    0.7739	$mt2
+ $X=3.1575 $Y=5.01
Rh63	avC7#89	avC7#92	    1.5170	$mt2
+ $X=9.4675 $Y=5.015
Rh64	avC7#68	avC7#92	    0.7739	$mt2
+ $X=8.3975 $Y=5.01
Rh76	avC7#46	avC7#110	    0.2228	$mt2
+ $X=10.125 $Y=1.5545
Rh82	avC7#110	avC7#100	    1.4000	$mt2
+ $X=10.125 $Y=1.34
Rh104	avC7#117	avC7#128	    1.5170	$mt2
+ $X=12.7525 $Y=1.065
Rh105	avC7#129	avC7#128	    0.7739	$mt2
+ $X=13.8225 $Y=1.07
Rh107	avC7#134	avC7#137	    1.5170	$mt2
+ $X=14.7075 $Y=5.015
Rh108	avC7#124	avC7#137	    0.7739	$mt2
+ $X=13.6375 $Y=5.01
Rh137	avC7#150	avC7#154	    1.5170	$mt2
+ $X=19.9475 $Y=5.015
Rh138	avC7#145	avC7#154	    0.7739	$mt2
+ $X=18.8775 $Y=5.01
Rh154	avC7#163	avC7#165	    1.5170	$mt2
+ $X=21.9725 $Y=1.065
Rh155	avC7#166	avC7#165	    0.7739	$mt2
+ $X=23.0425 $Y=1.07
Rh164	avC7#179	avC7#180	    1.5170	$mt2
+ $X=25.1875 $Y=5.015
Rh165	avC7#168	avC7#180	    0.7739	$mt2
+ $X=24.1175 $Y=5.01
Rh184	avC7#193	avC7#195	    1.5170	$mt2
+ $X=27.2125 $Y=1.065
Rh185	avC7#196	avC7#195	    0.7739	$mt2
+ $X=28.2825 $Y=1.07
Rh194	avC7#209	avC7#210	    1.5170	$mt2
+ $X=30.4275 $Y=5.015
Rh195	avC7#198	avC7#210	    0.7739	$mt2
+ $X=29.3575 $Y=5.01
Rh9	avC8#6	avC8#7	    1.4000	$mt2	$X=-4.095 $Y=4.71
Rh26	avC8#13	avC8#14	    1.4000	$mt2
+ $X=1.145 $Y=4.71
Rh40	avC8#23	avC8#24	    2.8000	$mt2	$X=4.09 $Y=1.35
Rh57	avC8#36	avC8#37	    1.4000	$mt2
+ $X=6.385 $Y=4.71
Rh89	avC8#54	avC8#52	    0.2140	$mt2
+ $X=11.29 $Y=1.42
Rh90	avC8#54	avC8#46	    0.2700	$mt2
+ $X=11.06 $Y=1.1275
Rh91	avC8#54	avC8#43	    0.1231	$mt2
+ $X=11.062 $Y=1.4895
Rh96	avC8#51	avC8#55	    1.4000	$mt2
+ $X=11.625 $Y=4.71
Rh115	avC8#65	avC8#66	    2.8000	$mt2
+ $X=15.83 $Y=1.35
Rh126	avC8#75	avC8#76	    1.4000	$mt2
+ $X=16.865 $Y=4.71
Rh149	avC8#85	avC8#86	    1.4000	$mt2
+ $X=22.105 $Y=4.71
Rh163	avC8#95	avC8#96	    2.8000	$mt2
+ $X=25.05 $Y=1.35
Rh179	avC8#105	avC8#106	    1.4000	$mt2
+ $X=27.345 $Y=4.71
Rh193	avC8#115	avC8#116	    2.8000	$mt2
+ $X=30.29 $Y=1.35
Rh174	I390/avC10	I390/avC10#5	    1.5200	$mt2
+ $X=26.6105 $Y=5.57
Rh178	I390/avC10#7	I390/avC10#6	    1.6152	$mt2	$X=27 $Y=4.355
Rh181	I390/avC10#17	I390/avC10#11	    3.1888	$mt2
+ $X=27.7375 $Y=4.035
Rh187	I390/I0/avC9#11	I390/I0/avC9#7	    2.9790	$mt2
+ $X=29.1305 $Y=3.9425
Rh144	I391/avC10	I391/avC10#5	    1.5200	$mt2
+ $X=21.3705 $Y=5.57
Rh148	I391/avC10#7	I391/avC10#6	    1.6152	$mt2
+ $X=21.76 $Y=4.355
Rh151	I391/avC10#17	I391/avC10#11	    3.1888	$mt2
+ $X=22.4975 $Y=4.035
Rh157	I391/I0/avC9#11	I391/I0/avC9#7	    2.9790	$mt2
+ $X=23.8905 $Y=3.9425
Rh118	I392/avC10	I392/avC10#5	    1.5200	$mt2
+ $X=16.1305 $Y=5.57
Rh125	I392/avC10#7	I392/avC10#6	    1.6152	$mt2
+ $X=16.52 $Y=4.355
Rh130	I392/avC10#17	I392/avC10#11	    3.1888	$mt2
+ $X=17.2575 $Y=4.035
Rh135	I392/I0/avC9#11	I392/I0/avC9#7	    2.9790	$mt2
+ $X=18.6505 $Y=3.9425
Rh87	I393/avC10	I393/avC10#5	    1.5200	$mt2
+ $X=10.8905 $Y=5.57
Rh95	I393/avC10#7	I393/avC10#6	    1.6152	$mt2
+ $X=11.28 $Y=4.355
Rh99	I393/avC10#17	I393/avC10#11	    3.1888	$mt2
+ $X=12.0175 $Y=4.035
Rh103	I393/I0/avC9#10	I393/I0/avC9#7	    2.9790	$mt2
+ $X=13.4105 $Y=3.9425
Rh52	I394/avC10	I394/avC10#6	    0.1200	$mt2
+ $X=5.6505 $Y=5.57
Rh56	I394/avC10#7	I394/avC10#5	    1.6152	$mt2
+ $X=6.04 $Y=4.355
Rh59	I394/avC10#17	I394/avC10#11	    3.1888	$mt2
+ $X=6.7775 $Y=4.035
Rh62	I394/I0/avC9#11	I394/I0/avC9#7	    2.9790	$mt2
+ $X=8.1705 $Y=3.9425
Rh21	I399/avC10	I399/avC10#5	    1.5200	$mt2
+ $X=0.4105 $Y=5.57
Rh25	I399/avC10#7	I399/avC10#6	    1.6152	$mt2	$X=0.8 $Y=4.355
Rh28	I399/avC10#17	I399/avC10#11	    3.1888	$mt2
+ $X=1.5375 $Y=4.035
Rh34	I399/I0/avC9#11	I399/I0/avC9#7	    2.9790	$mt2
+ $X=2.9305 $Y=3.9425
Rh3	I400/avC10	I400/avC10#5	    1.5200	$mt2
+ $X=-4.8295 $Y=5.57
Rh8	I400/avC10#7	I400/avC10#6	    1.6152	$mt2
+ $X=-4.44 $Y=4.355
Rh11	I400/avC10#17	I400/avC10#11	    3.1888	$mt2
+ $X=-3.7025 $Y=4.035
Rh14	I400/I0/avC9#11	I400/I0/avC9#7	    2.9790	$mt2
+ $X=-2.3095 $Y=3.9425
Rh191	I389/avC10#13	I389/avC10#2	    1.7888	$mt2
+ $X=29.9025 $Y=2.045
Rh198	I389/avC10#9	I389/avC10#14	    3.0152	$mt2
+ $X=30.64 $Y=1.725
Rh202	I389/avC10#18	I389/avC10#15	    0.1200	$mt2
+ $X=31.0305 $Y=0.51
Rh186	I389/I0/avC9#8	I389/I0/avC9#4	    2.9790	$mt2
+ $X=28.5105 $Y=2.1375
Rh161	I396/avC10#13	I396/avC10#2	    1.7888	$mt2
+ $X=24.6625 $Y=2.045
Rh167	I396/avC10#9	I396/avC10#14	    3.0152	$mt2
+ $X=25.4 $Y=1.725
Rh170	I396/avC10#18	I396/avC10#15	    0.1200	$mt2
+ $X=25.7905 $Y=0.51
Rh156	I396/I0/avC9#8	I396/I0/avC9#4	    2.9790	$mt2
+ $X=23.2705 $Y=2.1375
Rh113	I397/avC10#13	I397/avC10#2	    1.7888	$mt2
+ $X=15.4425 $Y=2.045
Rh119	I397/avC10#9	I397/avC10#14	    3.0152	$mt2
+ $X=16.18 $Y=1.725
Rh122	I397/avC10#18	I397/avC10#15	    0.1200	$mt2
+ $X=16.5705 $Y=0.51
Rh106	I397/I0/avC9#8	I397/I0/avC9#4	    2.9790	$mt2
+ $X=14.0505 $Y=2.1375
Rh38	I395/avC10#13	I395/avC10#2	    1.7888	$mt2
+ $X=3.7025 $Y=2.045
Rh45	I395/avC10#9	I395/avC10#14	    3.0152	$mt2
+ $X=4.44 $Y=1.725
Rh48	I395/avC10#18	I395/avC10#15	    0.1200	$mt2
+ $X=4.8305 $Y=0.51
Rh33	I395/I0/avC9#8	I395/I0/avC9#4	    2.9790	$mt2
+ $X=2.3105 $Y=2.1375
Ri1034	gnd!#2	gnd!#4	    0.3533	$mt1	$X=31.18 $Y=5.742
Ri1035	gnd!#6	gnd!#4	1.333e-02	$mt1	$X=28.8195 $Y=6.01
Ri1036	gnd!#4	gnd!	    3.4526	$mt1	$X=32.0925 $Y=3.2795
Ri1041	gnd!#13	gnd!	    1.5335	$mt1	$X=26.695 $Y=0.08
Ri1042	gnd!#13	gnd!	    0.8290	$mt1	$X=24.0085 $Y=0.07
Ri1043	gnd!#14	gnd!	    1.3580	$mt1	$X=21.399 $Y=0.08
Ri1044	gnd!#14	gnd!	    1.2793	$mt1	$X=21.08 $Y=0.0795
Ri1045	gnd!#15	gnd!	    0.4233	$mt1	$X=13.25 $Y=0.07
Ri1048	gnd!#17	gnd!	    1.6609	$mt1	$X=5.2225 $Y=0.07
Ri1053	gnd!#25	gnd!	    0.3560	$mt1	$X=26.46 $Y=0.3375
Ri1059	gnd!#34	gnd!#14	    0.3647	$mt1
+ $X=21.22 $Y=0.3375
Ri1061	gnd!#37	gnd!	    0.4133	$mt1	$X=20.7 $Y=0.35
Ri1063	gnd!#40	gnd!	    0.3733	$mt1	$X=19.12 $Y=0.29
Ri1065	gnd!#43	gnd!	    0.4533	$mt1	$X=17.76 $Y=0.41
Ri1067	gnd!#5	gnd!	   15.0533	$mt1	$X=18.6015 $Y=0.08
Ri1072	gnd!#52	gnd!	    0.3533	$mt1	$X=12 $Y=0.3375
Ri1094	gnd!#85	gnd!	    0.3533	$mt1	$X=0.26 $Y=0.3375
Ri1096	gnd!#88	gnd!	    0.3867	$mt1	$X=-2.04 $Y=0.36
Ri1098	gnd!#91	gnd!	    0.3533	$mt1	$X=-4.1 $Y=0.335
Ri1100	gnd!#93	gnd!#4	    1.4099	$mt1	$X=26.1405 $Y=6
Ri1101	gnd!#95	gnd!#93	    0.3647	$mt1
+ $X=25.94 $Y=5.7425
Ri1103	gnd!#93	gnd!#4	    1.2914	$mt1	$X=25.804 $Y=6
Ri1108	gnd!#103	gnd!#4	    1.2901	$mt1	$X=20.9005 $Y=6
Ri1109	gnd!#105	gnd!#103	    0.3647	$mt1
+ $X=20.7 $Y=5.7425
Ri1111	gnd!#103	gnd!#4	    1.2914	$mt1	$X=20.564 $Y=6
Ri1116	gnd!#113	gnd!#4	    1.2901	$mt1	$X=15.6605 $Y=6
Ri1117	gnd!#115	gnd!#113	    0.3647	$mt1
+ $X=15.46 $Y=5.7425
Ri1119	gnd!#113	gnd!#4	    1.2914	$mt1	$X=15.324 $Y=6
Ri1124	gnd!#123	gnd!#4	    1.2901	$mt1	$X=10.4205 $Y=6
Ri1125	gnd!#125	gnd!#123	    0.3647	$mt1
+ $X=10.22 $Y=5.7425
Ri1127	gnd!#123	gnd!#4	    1.2914	$mt1	$X=10.084 $Y=6
Ri1132	gnd!#133	gnd!#4	    1.2901	$mt1	$X=5.1805 $Y=6
Ri1133	gnd!#135	gnd!#133	    0.3647	$mt1
+ $X=4.98 $Y=5.7425
Ri1135	gnd!#133	gnd!#4	    1.2914	$mt1	$X=4.844 $Y=6
Ri1140	gnd!#143	gnd!#4	    1.2901	$mt1	$X=-0.0595 $Y=6
Ri1141	gnd!#145	gnd!#143	    0.3647	$mt1
+ $X=-0.26 $Y=5.7425
Ri1143	gnd!#143	gnd!#4	    1.2912	$mt1	$X=-0.3955 $Y=6
Ri1148	gnd!#2	gnd!#1	   15.0000	$mt1	$X=31.18 $Y=5.445
Ri1149	gnd!#6	gnd!#5	   15.0000	$mt1	$X=31.2 $Y=6.04
Ri1152	gnd!#13	gnd!#5	   15.0000	$mt1	$X=26.44 $Y=0.04
Ri1153	gnd!#14	gnd!#5	   15.0000	$mt1	$X=21.2 $Y=0.04
Ri1154	gnd!#15	gnd!#5	   15.0000	$mt1	$X=11.98 $Y=0.04
Ri1155	gnd!#17	gnd!#5	   15.0000	$mt1	$X=0.24 $Y=0.04
Ri1158	gnd!#25	gnd!#24	   15.0000	$mt1
+ $X=26.46 $Y=0.635
Ri1161	gnd!#34	gnd!#33	   15.0000	$mt1
+ $X=21.22 $Y=0.635
Ri1162	gnd!#37	gnd!#36	   15.0000	$mt1	$X=20.7 $Y=0.72
Ri1163	gnd!#40	gnd!#39	   15.0000	$mt1
+ $X=19.12 $Y=0.66
Ri1164	gnd!#43	gnd!#42	   15.0000	$mt1
+ $X=17.76 $Y=0.78
Ri1167	gnd!#52	gnd!#51	   15.0000	$mt1	$X=12 $Y=0.635
Ri1178	gnd!#85	gnd!#84	   15.0000	$mt1
+ $X=0.26 $Y=0.635
Ri1179	gnd!#88	gnd!#87	   15.0000	$mt1
+ $X=-2.04 $Y=0.68
Ri1180	gnd!#91	gnd!#90	   15.0000	$mt1	$X=-4.1 $Y=0.63
Ri1181	gnd!#93	gnd!#5	   15.0000	$mt1	$X=25.96 $Y=6.04
Ri1182	gnd!#95	gnd!#94	   15.0000	$mt1
+ $X=25.94 $Y=5.445
Ri1185	gnd!#103	gnd!#5	   15.0000	$mt1	$X=20.72 $Y=6.04
Ri1186	gnd!#105	gnd!#104	   15.0000	$mt1
+ $X=20.7 $Y=5.445
Ri1189	gnd!#113	gnd!#5	   15.0000	$mt1	$X=15.48 $Y=6.04
Ri1190	gnd!#115	gnd!#114	   15.0000	$mt1
+ $X=15.46 $Y=5.445
Ri1193	gnd!#123	gnd!#5	   15.0000	$mt1	$X=10.24 $Y=6.04
Ri1194	gnd!#125	gnd!#124	   15.0000	$mt1
+ $X=10.22 $Y=5.445
Ri1197	gnd!#133	gnd!#5	   15.0000	$mt1	$X=5 $Y=6.04
Ri1198	gnd!#135	gnd!#134	   15.0000	$mt1
+ $X=4.98 $Y=5.445
Ri1201	gnd!#143	gnd!#5	   15.0000	$mt1	$X=-0.24 $Y=6.04
Ri1202	gnd!#145	gnd!#144	   15.0000	$mt1
+ $X=-0.26 $Y=5.445
Ri83	11_B0	11_B0#2	8.400e-02	$mt1	$X=0.2925 $Y=1.2
Ri84	11_B0#2	11_B0#5	    0.8599	$mt1
+ $X=-0.8175 $Y=1.18
Ri85	11_B0#5	11_B0#7	    0.3867	$mt1
+ $X=-1.62 $Y=0.95
Ri87	11_B0#5	11_B0#10	    0.4133	$mt1
+ $X=-1.62 $Y=1.4975
Ri89	11_B0#6	11_B0#7	   15.0000	$mt1
+ $X=-1.62 $Y=0.68
Ri90	11_B0#9	11_B0#10	   15.0000	$mt1
+ $X=-1.62 $Y=1.88
Ri481	11_B0#15	11_B0#16	    1.5589	$mt1
+ $X=17.455 $Y=1.365
Ri206	avC9#2	avC9#4	    0.4400	$mt1	$X=4.56 $Y=1.4805
Ri207	avC9#4	avC9#6	    0.4533	$mt1	$X=4.56 $Y=0.9755
Ri209	avC9#2	avC9#8	    1.8510	$mt1	$X=4.56 $Y=2.3645
Ri210	avC9	avC9#2	    7.5000	$mt1	$X=4.56 $Y=1.93
Ri211	avC9#5	avC9#6	   15.0000	$mt1	$X=4.56 $Y=0.59
Ri351	avC9#15	avC9#11	4.200e-02	$mt1
+ $X=12.085 $Y=1.2
Ri501	avC16#2	avC16#4	    0.4400	$mt1
+ $X=16.3 $Y=1.4805
Ri502	avC16#4	avC16#5	    0.2284	$mt1
+ $X=16.3 $Y=1.098
Ri503	avC16#5	avC16#7	    0.2184	$mt1	$X=16.3 $Y=0.8
Ri505	avC16#5	avC16#9	    0.6497	$mt1
+ $X=17.215 $Y=1.0225
Ri506	avC16#9	avC16#10	   10.6863	$mt1
+ $X=17.7475 $Y=1.12
Ri507	avC16	avC16#2	    7.5000	$mt1	$X=16.3 $Y=1.93
Ri508	avC16#6	avC16#7	   15.0000	$mt1	$X=16.3 $Y=0.59
Ri510	avC17	avC17#2	   15.0000	$mt1	$X=18.6 $Y=0.78
Ri511	avC17#2	avC17#3	    1.4046	$mt1
+ $X=18.5875 $Y=0.78
Ri512	avC17#4	avC17#5	8.857e-02	$mt1
+ $X=19.0325 $Y=2.075
Ri514	avC17#6	avC17#5	    5.0000	$mt1
+ $X=19.02 $Y=2.075
Ri539	avC17#8	avC17#11	2.892e-03	$mt1
+ $X=20.0475 $Y=0.755
Ri540	avC17#11	avC17#12	    2.1735	$mt1
+ $X=19.9125 $Y=0.895
Ri541	avC17#9	avC17#8	   15.0000	$mt1
+ $X=20.06 $Y=0.72
Ri563	avC17#14	avC17#16	    0.7219	$mt1
+ $X=20.8175 $Y=1.85
Ri564	avC17#16	avC17#13	2.308e-02	$mt1
+ $X=20.57 $Y=1.92
Ri565	avC17#13	avC17#17	   15.0046	$mt1
+ $X=20.4925 $Y=1.92
Ri690	avC19#2	avC19#4	    0.4400	$mt1
+ $X=25.52 $Y=1.4805
Ri691	avC19#4	avC19#5	    0.2169	$mt1
+ $X=25.52 $Y=1.1055
Ri692	avC19#5	avC19#7	    0.2303	$mt1
+ $X=25.52 $Y=0.81
Ri694	avC19#5	avC19#9	    0.6892	$mt1
+ $X=25.975 $Y=0.94
Ri696	avC19	avC19#2	    7.5000	$mt1	$X=25.52 $Y=1.93
Ri697	avC19#6	avC19#7	   15.0000	$mt1
+ $X=25.52 $Y=0.59
Ri813	avC10#2	avC10#4	    1.6400	$mt1
+ $X=30.76 $Y=2.005
Ri814	avC10#2	avC10#5	    0.4400	$mt1
+ $X=30.76 $Y=1.4805
Ri815	avC10#5	avC10#7	    0.4533	$mt1
+ $X=30.76 $Y=0.9755
Ri817	avC10	avC10#2	    7.5000	$mt1	$X=30.76 $Y=1.93
Ri818	avC10#6	avC10#7	   15.0000	$mt1
+ $X=30.76 $Y=0.59
Ri821	avC10#10	avC10#11	    1.4420	$mt1
+ $X=31.1525 $Y=4.9
Ri92	avC12#6	avC12#8	    0.2269	$mt1
+ $X=0.68 $Y=5.273
Ri93	avC12#8	avC12	    0.6819	$mt1	$X=0.225 $Y=5.145
Ri95	avC12#8	avC12#10	    0.2203	$mt1
+ $X=0.68 $Y=4.9775
Ri96	avC12#10	avC12#12	    0.4400	$mt1
+ $X=0.68 $Y=4.6005
Ri98	avC12#5	avC12#6	   15.0000	$mt1	$X=0.68 $Y=5.49
Ri99	avC12#11	avC12#12	    7.5000	$mt1	$X=0.68 $Y=4.15
Ri7	avC11#2	avC11#4	    0.4533	$mt1
+ $X=-4.56 $Y=5.1055
Ri8	avC11#4	avC11#6	    0.4400	$mt1
+ $X=-4.56 $Y=4.6005
Ri10	avC11#6	avC11#8	    1.8150	$mt1
+ $X=-4.56 $Y=3.7605
Ri11	avC11	avC11#2	   15.0000	$mt1	$X=-4.56 $Y=5.49
Ri12	avC11#5	avC11#6	    7.5000	$mt1
+ $X=-4.56 $Y=4.15
Ri21	avC11#12	avC11#13	   10.0920	$mt1
+ $X=-4.0695 $Y=1.2
Ri22	avC11#13	avC11#11	    0.1540	$mt1
+ $X=-4.377 $Y=1.2
Ri222	avC13#6	avC13#8	    0.2269	$mt1
+ $X=5.92 $Y=5.273
Ri223	avC13#8	avC13	    0.6819	$mt1	$X=5.465 $Y=5.145
Ri225	avC13#8	avC13#10	    0.2203	$mt1
+ $X=5.92 $Y=4.9775
Ri226	avC13#10	avC13#12	    0.4400	$mt1
+ $X=5.92 $Y=4.6005
Ri228	avC13#5	avC13#6	   15.0000	$mt1	$X=5.92 $Y=5.49
Ri229	avC13#11	avC13#12	    7.5000	$mt1	$X=5.92 $Y=4.15
Ri330	avC14#6	avC14#8	    0.2263	$mt1
+ $X=11.16 $Y=5.273
Ri331	avC14#8	avC14	    0.6803	$mt1	$X=10.7075 $Y=5.145
Ri333	avC14#8	avC14#10	    0.2139	$mt1
+ $X=11.1625 $Y=4.9775
Ri334	avC14#10	avC14#12	    0.4400	$mt1
+ $X=11.16 $Y=4.6005
Ri336	avC14#5	avC14#6	   15.0000	$mt1
+ $X=11.16 $Y=5.49
Ri337	avC14#11	avC14#12	    7.5000	$mt1
+ $X=11.16 $Y=4.15
Ri455	avC15#6	avC15#8	    0.2269	$mt1
+ $X=16.4 $Y=5.273
Ri456	avC15#8	avC15	    0.6819	$mt1	$X=15.945 $Y=5.145
Ri458	avC15#8	avC15#10	    0.2203	$mt1
+ $X=16.4 $Y=4.9775
Ri459	avC15#10	avC15#12	    0.4400	$mt1
+ $X=16.4 $Y=4.6005
Ri461	avC15#5	avC15#6	   15.0000	$mt1	$X=16.4 $Y=5.49
Ri462	avC15#11	avC15#12	    7.5000	$mt1	$X=16.4 $Y=4.15
Ri567	avC18#6	avC18#8	    0.2269	$mt1
+ $X=21.64 $Y=5.273
Ri568	avC18#8	avC18	    0.6819	$mt1	$X=21.185 $Y=5.145
Ri570	avC18#8	avC18#10	    0.2203	$mt1
+ $X=21.64 $Y=4.9775
Ri571	avC18#10	avC18#12	    0.4400	$mt1
+ $X=21.64 $Y=4.6005
Ri573	avC18#5	avC18#6	   15.0000	$mt1
+ $X=21.64 $Y=5.49
Ri574	avC18#11	avC18#12	    7.5000	$mt1
+ $X=21.64 $Y=4.15
Ri699	avC20#6	avC20#8	    0.2269	$mt1
+ $X=26.88 $Y=5.273
Ri700	avC20#8	avC20	    0.6926	$mt1	$X=26.425 $Y=5.145
Ri702	avC20#8	avC20#10	    0.2203	$mt1
+ $X=26.88 $Y=4.9775
Ri703	avC20#10	avC20#12	    0.4400	$mt1
+ $X=26.88 $Y=4.6005
Ri705	avC20#5	avC20#6	   15.0000	$mt1
+ $X=26.88 $Y=5.49
Ri706	avC20#11	avC20#12	    7.5000	$mt1
+ $X=26.88 $Y=4.15
Ri42	avC6#2	avC6#3	    0.9898	$mt1	$X=-2.8325 $Y=1.205
Ri43	avC6#3	avC6#5	    0.3089	$mt1	$X=-3.56 $Y=1.42
Ri45	avC6#3	avC6#8	    0.3833	$mt1	$X=-3.56 $Y=0.9475
Ri47	avC6#4	avC6#5	   15.0000	$mt1	$X=-3.62 $Y=1.695
Ri48	avC6#7	avC6#8	   15.0000	$mt1	$X=-3.56 $Y=0.63
Ri483	I398/avC7	I398/avC7#2	   10.2625	$mt1
+ $X=17.68 $Y=2.308
Ri484	I398/avC7#2	I398/avC7#4	2.500e-02	$mt1
+ $X=17.675 $Y=2.02
Ri486	I398/avC7#3	I398/avC7#4	   15.0000	$mt1
+ $X=17.66 $Y=1.99
Ri498	I398/avC7#6	I398/avC7#7	   15.0000	$mt1
+ $X=18.18 $Y=0.78
Ri499	I398/avC7#7	I398/avC7#8	    1.4000	$mt1
+ $X=18.18 $Y=0.78
Ri553	I398/avC7#11	I398/avC7#15	    0.4700	$mt1
+ $X=20.06 $Y=2.303
Ri555	I398/avC7#15	I398/avC7#17	   10.7347	$mt1
+ $X=20.06 $Y=1.388
Ri556	I398/avC7#14	I398/avC7#15	   15.0000	$mt1
+ $X=20.06 $Y=1.92
Ri525	I398/avC6#2	I398/avC6#4	    0.5183	$mt1
+ $X=19.54 $Y=1.107
Ri526	I398/avC6#4	I398/avC6#6	    0.9750	$mt1
+ $X=19.01 $Y=1.375
Ri528	I398/avC6#4	I398/avC6#8	   10.5639	$mt1
+ $X=19.42 $Y=1.8225
Ri529	I398/avC6	I398/avC6#2	   15.0000	$mt1
+ $X=19.54 $Y=0.66
Ri530	I398/avC6#5	I398/avC6#6	    5.0000	$mt1
+ $X=18.6 $Y=2.075
Ri772	I390/I0/avC8	I390/I0/avC8#6	    0.9970	$mt1
+ $X=29.1305 $Y=5.145
Ri775	I390/I0/avC8#6	I390/I0/avC8#5	   15.0000	$mt1
+ $X=29.6 $Y=5.535
Ri640	I391/I0/avC8	I391/I0/avC8#6	    0.9970	$mt1
+ $X=23.8905 $Y=5.145
Ri643	I391/I0/avC8#6	I391/I0/avC8#5	   15.0000	$mt1
+ $X=24.36 $Y=5.535
Ri516	I392/I0/avC8	I392/I0/avC8#6	    0.9970	$mt1
+ $X=18.6505 $Y=5.145
Ri519	I392/I0/avC8#6	I392/I0/avC8#5	   15.0000	$mt1
+ $X=19.12 $Y=5.535
Ri391	I393/I0/avC8	I393/I0/avC8#6	    0.9970	$mt1
+ $X=13.4105 $Y=5.145
Ri394	I393/I0/avC8#6	I393/I0/avC8#5	   15.0000	$mt1
+ $X=13.88 $Y=5.535
Ri280	I394/I0/avC8	I394/I0/avC8#6	    0.9970	$mt1
+ $X=8.1705 $Y=5.145
Ri283	I394/I0/avC8#6	I394/I0/avC8#5	   15.0000	$mt1
+ $X=8.64 $Y=5.535
Ri165	I399/I0/avC8	I399/I0/avC8#6	    0.9970	$mt1
+ $X=2.9305 $Y=5.145
Ri168	I399/I0/avC8#6	I399/I0/avC8#5	   15.0000	$mt1	$X=3.4 $Y=5.535
Ri50	I400/I0/avC8	I400/I0/avC8#6	    0.9970	$mt1
+ $X=-2.3095 $Y=5.145
Ri53	I400/I0/avC8#6	I400/I0/avC8#5	   15.0000	$mt1
+ $X=-1.84 $Y=5.535
Ri760	I389/I0/avC8#6	I389/I0/avC8	    0.9970	$mt1
+ $X=28.98 $Y=0.815
Ri763	I389/I0/avC8#6	I389/I0/avC8#5	   15.0000	$mt1
+ $X=28.04 $Y=0.545
Ri628	I396/I0/avC8#6	I396/I0/avC8	    0.9970	$mt1
+ $X=23.74 $Y=0.815
Ri631	I396/I0/avC8#6	I396/I0/avC8#5	   15.0000	$mt1
+ $X=22.8 $Y=0.545
Ri406	I397/I0/avC8#6	I397/I0/avC8	    0.9970	$mt1
+ $X=14.52 $Y=0.815
Ri409	I397/I0/avC8#6	I397/I0/avC8#5	   15.0000	$mt1
+ $X=13.58 $Y=0.545
Ri153	I395/I0/avC8#6	I395/I0/avC8	    0.9970	$mt1
+ $X=2.78 $Y=0.815
Ri156	I395/I0/avC8#6	I395/I0/avC8#5	   15.0000	$mt1
+ $X=1.84 $Y=0.545
Ri17	vdd!#4	vdd!#5	   15.0000	$mt1	$X=-4.14 $Y=5.49
Ri114	vdd!#12	vdd!#13	   15.0000	$mt1	$X=1.1 $Y=5.49
Ri183	vdd!#17	vdd!#18	   15.0000	$mt1	$X=4.14 $Y=0.59
Ri239	vdd!#28	vdd!#29	   15.0000	$mt1	$X=6.34 $Y=5.49
Ri346	vdd!#36	vdd!#37	   15.0000	$mt1
+ $X=11.58 $Y=5.49
Ri445	vdd!#41	vdd!#42	   15.0000	$mt1
+ $X=15.88 $Y=0.59
Ri471	vdd!#49	vdd!#50	   15.0000	$mt1
+ $X=16.82 $Y=5.49
Ri589	vdd!#62	vdd!#63	   15.0000	$mt1
+ $X=22.06 $Y=5.49
Ri658	vdd!#65	vdd!#66	   15.0000	$mt1	$X=25.1 $Y=0.59
Ri721	vdd!#78	vdd!#79	   15.0000	$mt1	$X=27.3 $Y=5.49
Ri790	vdd!#81	vdd!#82	   15.0000	$mt1
+ $X=30.34 $Y=0.59
Ri824	vdd!#90	vdd!#87	    0.4867	$mt1
+ $X=31.18 $Y=3.6755
Ri825	vdd!#90	vdd!	9.217e-02	$mt1	$X=31.12 $Y=3.2105
Ri826	vdd!#91	vdd!	    0.4997	$mt1	$X=31.18 $Y=2.605
Ri827	vdd!#91	vdd!#92	2.000e-02	$mt1
+ $X=31.1795 $Y=2.0325
Ri828	vdd!#91	vdd!#92	1.733e-02	$mt1
+ $X=31.18 $Y=1.9625
Ri829	vdd!#94	vdd!#91	1.733e-02	$mt1
+ $X=31.18 $Y=1.9625
Ri838	vdd!#107	vdd!	8.667e-02	$mt1	$X=26.52 $Y=2.87
Ri839	vdd!#109	vdd!#107	    0.4867	$mt1
+ $X=26.46 $Y=2.405
Ri841	vdd!#111	vdd!	    0.4995	$mt1	$X=25.94 $Y=2.605
Ri842	vdd!#111	vdd!#71	2.000e-02	$mt1
+ $X=25.9395 $Y=2.0325
Ri843	vdd!#111	vdd!#71	1.733e-02	$mt1
+ $X=25.94 $Y=1.9625
Ri844	vdd!#113	vdd!#111	1.733e-02	$mt1
+ $X=25.94 $Y=1.9625
Ri845	vdd!#74	vdd!	    0.5282	$mt1	$X=26.46 $Y=3.4925
Ri846	vdd!#114	vdd!#74	1.733e-02	$mt1
+ $X=26.4595 $Y=4.1175
Ri847	vdd!#116	vdd!#114	1.733e-02	$mt1
+ $X=26.4595 $Y=4.1175
Ri850	vdd!#120	vdd!	9.876e-02	$mt1	$X=25.88 $Y=3.21
Ri851	vdd!#122	vdd!#120	    0.4867	$mt1
+ $X=25.94 $Y=3.675
Ri859	vdd!#133	vdd!	8.667e-02	$mt1	$X=21.28 $Y=2.87
Ri860	vdd!#135	vdd!#133	    0.4867	$mt1
+ $X=21.22 $Y=2.405
Ri862	vdd!#89	vdd!	   15.0830	$mt1	$X=20.66 $Y=2.87
Ri863	vdd!#58	vdd!	    0.5282	$mt1	$X=21.22 $Y=3.4925
Ri864	vdd!#137	vdd!#58	1.733e-02	$mt1
+ $X=21.2195 $Y=4.1175
Ri865	vdd!#139	vdd!#137	1.733e-02	$mt1
+ $X=21.2195 $Y=4.1175
Ri866	vdd!#141	vdd!	    0.5767	$mt1	$X=18.18 $Y=2.7025
Ri868	vdd!#143	vdd!	9.876e-02	$mt1	$X=20.64 $Y=3.21
Ri869	vdd!#145	vdd!#143	    0.4867	$mt1
+ $X=20.7 $Y=3.675
Ri875	vdd!#154	vdd!	    0.6333	$mt1	$X=17.24 $Y=2.495
Ri877	vdd!#156	vdd!	    0.4930	$mt1	$X=16.72 $Y=2.605
Ri878	vdd!#156	vdd!#53	2.000e-02	$mt1
+ $X=16.7195 $Y=2.0325
Ri879	vdd!#156	vdd!#53	1.733e-02	$mt1
+ $X=16.72 $Y=1.9625
Ri880	vdd!#158	vdd!#156	1.733e-02	$mt1
+ $X=16.72 $Y=1.9625
Ri883	vdd!#45	vdd!	    0.5572	$mt1	$X=15.98 $Y=3.4925
Ri884	vdd!#162	vdd!#45	1.733e-02	$mt1
+ $X=15.9795 $Y=4.1175
Ri885	vdd!#164	vdd!#162	1.733e-02	$mt1
+ $X=15.9795 $Y=4.1175
Ri886	vdd!#165	vdd!	9.876e-02	$mt1	$X=15.4 $Y=3.21
Ri887	vdd!#167	vdd!#165	    0.4867	$mt1
+ $X=15.46 $Y=3.675
Ri895	vdd!#178	vdd!	8.667e-02	$mt1	$X=12.06 $Y=2.87
Ri896	vdd!#180	vdd!#178	    0.4867	$mt1	$X=12 $Y=2.405
Ri900	vdd!#89	vdd!	   15.0867	$mt1	$X=11.06 $Y=2.87
Ri903	vdd!#33	vdd!	    0.5166	$mt1	$X=10.74 $Y=3.4925
Ri904	vdd!#188	vdd!#33	1.733e-02	$mt1
+ $X=10.7395 $Y=4.1175
Ri905	vdd!#190	vdd!#188	1.733e-02	$mt1
+ $X=10.7395 $Y=4.1175
Ri908	vdd!#194	vdd!	8.667e-02	$mt1	$X=10.16 $Y=3.21
Ri909	vdd!#196	vdd!#194	    0.4867	$mt1
+ $X=10.22 $Y=3.675
Ri925	vdd!#219	vdd!	    0.4995	$mt1	$X=4.98 $Y=2.605
Ri926	vdd!#219	vdd!#23	2.000e-02	$mt1
+ $X=4.9795 $Y=2.0325
Ri927	vdd!#219	vdd!#23	1.733e-02	$mt1
+ $X=4.98 $Y=1.9625
Ri928	vdd!#221	vdd!#219	1.733e-02	$mt1
+ $X=4.98 $Y=1.9625
Ri929	vdd!#25	vdd!	    0.5130	$mt1	$X=5.5 $Y=3.4925
Ri930	vdd!#222	vdd!#25	1.733e-02	$mt1
+ $X=5.4995 $Y=4.1175
Ri931	vdd!#224	vdd!#222	1.733e-02	$mt1
+ $X=5.4995 $Y=4.1175
Ri934	vdd!#228	vdd!	9.876e-02	$mt1	$X=4.92 $Y=3.21
Ri935	vdd!#230	vdd!#228	    0.4867	$mt1
+ $X=4.98 $Y=3.675
Ri943	vdd!#241	vdd!	8.667e-02	$mt1	$X=0.32 $Y=2.87
Ri944	vdd!#243	vdd!#241	    0.4867	$mt1
+ $X=0.26 $Y=2.405
Ri946	vdd!#246	vdd!	    0.7067	$mt1	$X=-2.04 $Y=2.5
Ri948	vdd!#9	vdd!	    0.5282	$mt1	$X=0.26 $Y=3.4925
Ri949	vdd!#248	vdd!#9	1.733e-02	$mt1	$X=0.2595 $Y=4.1175
Ri950	vdd!#250	vdd!#248	1.733e-02	$mt1
+ $X=0.2595 $Y=4.1175
Ri951	vdd!#251	vdd!	6.667e-02	$mt1	$X=-0.32 $Y=3.21
Ri952	vdd!#253	vdd!#251	    0.4867	$mt1
+ $X=-0.26 $Y=3.675
Ri956	vdd!#89	vdd!	   15.0867	$mt1	$X=-3.6 $Y=2.87
Ri959	vdd!#262	vdd!	    0.8300	$mt1	$X=-4.04 $Y=2.3475
Ri961	vdd!#2	vdd!	    0.5296	$mt1	$X=-4.98 $Y=3.4925
Ri962	vdd!#264	vdd!#2	1.733e-02	$mt1	$X=-4.9805 $Y=4.1175
Ri963	vdd!#266	vdd!#264	1.733e-02	$mt1
+ $X=-4.9805 $Y=4.1175
Ri964	vdd!#87	vdd!#86	   15.0000	$mt1
+ $X=31.18 $Y=4.13
Ri965	vdd!#90	vdd!#89	   15.0000	$mt1
+ $X=31.12 $Y=3.34
Ri966	vdd!#94	vdd!#93	    7.5000	$mt1
+ $X=31.18 $Y=1.93
Ri971	vdd!#107	vdd!#89	   15.0000	$mt1
+ $X=26.52 $Y=2.74
Ri972	vdd!#109	vdd!#108	   15.0000	$mt1
+ $X=26.46 $Y=1.95
Ri973	vdd!#113	vdd!#112	    7.5000	$mt1
+ $X=25.94 $Y=1.93
Ri974	vdd!#116	vdd!#115	    7.5000	$mt1
+ $X=26.46 $Y=4.15
Ri976	vdd!#120	vdd!#89	   15.0000	$mt1
+ $X=25.88 $Y=3.34
Ri977	vdd!#122	vdd!#121	   15.0000	$mt1
+ $X=25.94 $Y=4.13
Ri981	vdd!#133	vdd!#89	   15.0000	$mt1
+ $X=21.28 $Y=2.74
Ri982	vdd!#135	vdd!#134	   15.0000	$mt1
+ $X=21.22 $Y=1.95
Ri983	vdd!#139	vdd!#138	    7.5000	$mt1
+ $X=21.22 $Y=4.15
Ri984	vdd!#141	vdd!#140	    5.0000	$mt1
+ $X=18.18 $Y=2.075
Ri985	vdd!#143	vdd!#89	   15.0000	$mt1
+ $X=20.64 $Y=3.34
Ri986	vdd!#145	vdd!#144	   15.0000	$mt1	$X=20.7 $Y=4.13
Ri989	vdd!#154	vdd!#153	   15.0000	$mt1
+ $X=17.24 $Y=1.99
Ri990	vdd!#158	vdd!#157	    7.5000	$mt1
+ $X=16.72 $Y=1.93
Ri992	vdd!#164	vdd!#163	    7.5000	$mt1
+ $X=15.98 $Y=4.15
Ri993	vdd!#165	vdd!#89	   15.0000	$mt1	$X=15.4 $Y=3.34
Ri994	vdd!#167	vdd!#166	   15.0000	$mt1
+ $X=15.46 $Y=4.13
Ri998	vdd!#178	vdd!#89	   15.0000	$mt1
+ $X=12.06 $Y=2.74
Ri999	vdd!#180	vdd!#179	   15.0000	$mt1	$X=12 $Y=1.95
Ri1002	vdd!#190	vdd!#189	    7.5000	$mt1
+ $X=10.74 $Y=4.15
Ri1004	vdd!#194	vdd!#89	   15.0000	$mt1
+ $X=10.16 $Y=3.34
Ri1005	vdd!#196	vdd!#195	   15.0000	$mt1
+ $X=10.22 $Y=4.13
Ri1013	vdd!#221	vdd!#220	    7.5000	$mt1	$X=4.98 $Y=1.93
Ri1014	vdd!#224	vdd!#223	    7.5000	$mt1	$X=5.5 $Y=4.15
Ri1016	vdd!#228	vdd!#89	   15.0000	$mt1	$X=4.92 $Y=3.34
Ri1017	vdd!#230	vdd!#229	   15.0000	$mt1	$X=4.98 $Y=4.13
Ri1021	vdd!#241	vdd!#89	   15.0000	$mt1	$X=0.32 $Y=2.74
Ri1022	vdd!#243	vdd!#242	   15.0000	$mt1	$X=0.26 $Y=1.95
Ri1023	vdd!#246	vdd!#245	   15.0000	$mt1
+ $X=-2.04 $Y=1.88
Ri1024	vdd!#250	vdd!#249	    7.5000	$mt1	$X=0.26 $Y=4.15
Ri1025	vdd!#251	vdd!#89	   15.0000	$mt1
+ $X=-0.32 $Y=3.34
Ri1026	vdd!#253	vdd!#252	   15.0000	$mt1
+ $X=-0.26 $Y=4.13
Ri1029	vdd!#262	vdd!#261	   15.0000	$mt1
+ $X=-4.04 $Y=1.695
Ri1030	vdd!#266	vdd!#265	    7.5000	$mt1
+ $X=-4.98 $Y=4.15
Ri23	CLK#2	CLK#1	   11.4000	$mt1	$X=-3.595 $Y=5.015
Ri70	CLK#9	CLK#8	9.412e-03	$mt1	$X=-0.81 $Y=4.645
Ri71	CLK#10	CLK#8	6.452e-03	$mt1	$X=-0.86 $Y=4.605
Ri72	CLK#11	CLK#9	6.452e-03	$mt1	$X=-0.81 $Y=4.645
Ri73	CLK#11	CLK#10	9.412e-03	$mt1	$X=-0.835 $Y=4.625
Ri74	CLK#12	CLK#13	6.452e-03	$mt1	$X=-0.81 $Y=4.725
Ri75	CLK#12	CLK#11	1.882e-02	$mt1	$X=-0.835 $Y=4.685
Ri100	CLK#19	CLK#20	1.882e-02	$mt1	$X=0.81 $Y=1.435
Ri101	CLK#21	CLK#20	6.452e-03	$mt1	$X=0.81 $Y=1.355
Ri102	CLK#22	CLK#19	6.452e-03	$mt1	$X=0.81 $Y=1.435
Ri103	CLK#22	CLK#21	1.882e-02	$mt1	$X=0.835 $Y=1.395
Ri104	CLK#23	CLK#17	6.452e-03	$mt1	$X=0.86 $Y=1.475
Ri105	CLK#23	CLK#22	9.412e-03	$mt1	$X=0.835 $Y=1.455
Ri118	CLK#25	CLK#27	   10.0000	$mt1	$X=1.645 $Y=5.015
Ri176	CLK#32	CLK#33	   10.0000	$mt1	$X=3.595 $Y=1.065
Ri199	CLK#44	CLK#43	9.412e-03	$mt1	$X=4.43 $Y=4.645
Ri200	CLK#45	CLK#43	6.452e-03	$mt1	$X=4.38 $Y=4.605
Ri201	CLK#46	CLK#44	6.452e-03	$mt1	$X=4.43 $Y=4.645
Ri202	CLK#46	CLK#45	9.412e-03	$mt1	$X=4.405 $Y=4.625
Ri203	CLK#47	CLK#48	6.452e-03	$mt1	$X=4.43 $Y=4.725
Ri204	CLK#47	CLK#46	1.882e-02	$mt1	$X=4.405 $Y=4.685
Ri248	CLK#53	CLK#52	   11.4000	$mt1	$X=6.885 $Y=5.015
Ri271	CLK#58	CLK	    5.8656	$mt1	$X=6.7005 $Y=1.2975
Ri305	CLK#61	CLK#60	9.412e-03	$mt1	$X=9.67 $Y=4.645
Ri306	CLK#62	CLK#60	6.452e-03	$mt1	$X=9.62 $Y=4.605
Ri307	CLK#63	CLK#61	6.452e-03	$mt1	$X=9.67 $Y=4.645
Ri308	CLK#63	CLK#62	9.412e-03	$mt1	$X=9.645 $Y=4.625
Ri309	CLK#64	CLK#65	6.452e-03	$mt1	$X=9.67 $Y=4.725
Ri310	CLK#64	CLK#63	1.882e-02	$mt1	$X=9.645 $Y=4.685
Ri352	CLK#110	CLK#109	   11.4000	$mt1
+ $X=12.125 $Y=5.015
Ri365	CLK#112	CLK#113	1.882e-02	$mt1
+ $X=12.55 $Y=1.435
Ri366	CLK#114	CLK#113	6.452e-03	$mt1
+ $X=12.55 $Y=1.355
Ri367	CLK#115	CLK#112	6.452e-03	$mt1
+ $X=12.55 $Y=1.435
Ri368	CLK#115	CLK#114	1.882e-02	$mt1
+ $X=12.575 $Y=1.395
Ri369	CLK#116	CLK#117	6.452e-03	$mt1
+ $X=12.6 $Y=1.475
Ri370	CLK#116	CLK#115	9.412e-03	$mt1
+ $X=12.575 $Y=1.455
Ri429	CLK#125	CLK#124	9.412e-03	$mt1
+ $X=14.91 $Y=4.645
Ri430	CLK#126	CLK#124	6.452e-03	$mt1
+ $X=14.86 $Y=4.605
Ri431	CLK#127	CLK#125	6.452e-03	$mt1
+ $X=14.91 $Y=4.645
Ri432	CLK#127	CLK#126	9.412e-03	$mt1
+ $X=14.885 $Y=4.625
Ri433	CLK#128	CLK#129	6.452e-03	$mt1
+ $X=14.91 $Y=4.725
Ri434	CLK#128	CLK#127	1.882e-02	$mt1
+ $X=14.885 $Y=4.685
Ri438	CLK#134	CLK#135	   10.0000	$mt1
+ $X=15.335 $Y=1.065
Ri475	CLK#142	CLK#141	   11.4000	$mt1
+ $X=17.365 $Y=5.015
Ri547	CLK#147	CLK#148	9.412e-03	$mt1
+ $X=20.15 $Y=4.645
Ri548	CLK#149	CLK#148	6.452e-03	$mt1
+ $X=20.1 $Y=4.605
Ri549	CLK#150	CLK#147	6.452e-03	$mt1
+ $X=20.15 $Y=4.645
Ri550	CLK#150	CLK#149	9.412e-03	$mt1
+ $X=20.125 $Y=4.625
Ri551	CLK#151	CLK#152	6.452e-03	$mt1
+ $X=20.15 $Y=4.725
Ri552	CLK#151	CLK#150	1.882e-02	$mt1
+ $X=20.125 $Y=4.685
Ri575	CLK#159	CLK#160	1.882e-02	$mt1
+ $X=21.77 $Y=1.435
Ri576	CLK#161	CLK#160	6.452e-03	$mt1
+ $X=21.77 $Y=1.355
Ri577	CLK#162	CLK#159	6.452e-03	$mt1
+ $X=21.77 $Y=1.435
Ri578	CLK#162	CLK#161	1.882e-02	$mt1
+ $X=21.795 $Y=1.395
Ri579	CLK#163	CLK#157	6.452e-03	$mt1
+ $X=21.82 $Y=1.475
Ri580	CLK#163	CLK#162	9.412e-03	$mt1
+ $X=21.795 $Y=1.455
Ri593	CLK#165	CLK#167	   10.0000	$mt1
+ $X=22.605 $Y=5.015
Ri651	CLK#172	CLK#173	   10.0000	$mt1
+ $X=24.555 $Y=1.065
Ri674	CLK#184	CLK#183	9.412e-03	$mt1
+ $X=25.39 $Y=4.645
Ri675	CLK#185	CLK#183	6.452e-03	$mt1
+ $X=25.34 $Y=4.605
Ri676	CLK#186	CLK#184	6.452e-03	$mt1
+ $X=25.39 $Y=4.645
Ri677	CLK#186	CLK#185	9.412e-03	$mt1
+ $X=25.365 $Y=4.625
Ri678	CLK#187	CLK#188	6.452e-03	$mt1
+ $X=25.39 $Y=4.725
Ri679	CLK#187	CLK#186	1.882e-02	$mt1
+ $X=25.365 $Y=4.685
Ri707	CLK#191	CLK#192	1.882e-02	$mt1
+ $X=27.01 $Y=1.435
Ri708	CLK#193	CLK#192	6.452e-03	$mt1
+ $X=27.01 $Y=1.355
Ri709	CLK#194	CLK#191	6.452e-03	$mt1
+ $X=27.01 $Y=1.435
Ri710	CLK#194	CLK#193	1.882e-02	$mt1
+ $X=27.035 $Y=1.395
Ri711	CLK#195	CLK#189	6.452e-03	$mt1
+ $X=27.06 $Y=1.475
Ri712	CLK#195	CLK#194	9.412e-03	$mt1
+ $X=27.035 $Y=1.455
Ri725	CLK#197	CLK#199	   10.0000	$mt1
+ $X=27.845 $Y=5.015
Ri783	CLK#204	CLK#205	   10.0000	$mt1
+ $X=29.795 $Y=1.065
Ri806	CLK#216	CLK#215	9.412e-03	$mt1
+ $X=30.63 $Y=4.645
Ri807	CLK#217	CLK#215	6.452e-03	$mt1
+ $X=30.58 $Y=4.605
Ri808	CLK#218	CLK#216	6.452e-03	$mt1
+ $X=30.63 $Y=4.645
Ri809	CLK#218	CLK#217	9.412e-03	$mt1
+ $X=30.605 $Y=4.625
Ri810	CLK#219	CLK#220	6.452e-03	$mt1
+ $X=30.63 $Y=4.725
Ri811	CLK#219	CLK#218	1.882e-02	$mt1
+ $X=30.605 $Y=4.685
Ri4	Set#5	Set#4	   10.0000	$mt1	$X=-4.94 $Y=4.81
Ri5	Set#5	Set#3	2.623e-03	$mt1	$X=-4.94 $Y=4.81
Ri79	Set#16	Set#15	   10.0000	$mt1	$X=0.3 $Y=4.81
Ri80	Set#16	Set#14	2.623e-03	$mt1	$X=0.3 $Y=4.81
Ri215	Set#21	Set#23	    1.5589	$mt1	$X=5.12 $Y=1.36
Ri219	Set#31	Set#30	   10.0000	$mt1	$X=5.54 $Y=4.81
Ri220	Set#31	Set#32	    1.4026	$mt1	$X=5.54 $Y=4.81
Ri323	Set#47	Set#46	   10.0000	$mt1	$X=10.78 $Y=4.81
Ri324	Set#47	Set#44	2.623e-03	$mt1	$X=10.78 $Y=4.81
Ri338	Set#51	Set	    5.1319	$mt1	$X=10.824 $Y=1.1925
Ri339	Set#43	Set	1.769e-02	$mt1	$X=10.6725 $Y=1.205
Ri340	Set#43	Set	3.077e-03	$mt1	$X=10.615 $Y=1.205
Ri452	Set#62	Set#61	   10.0000	$mt1	$X=16.02 $Y=4.81
Ri453	Set#62	Set#63	    1.4026	$mt1	$X=16.02 $Y=4.81
Ri463	Set#67	Set#68	    1.4027	$mt1	$X=16.69 $Y=1.3125
Ri560	Set#79	Set#78	   10.0000	$mt1	$X=21.26 $Y=4.81
Ri561	Set#79	Set#77	2.623e-03	$mt1	$X=21.26 $Y=4.81
Ri683	Set#88	Set#93	    1.6719	$mt1	$X=26.0725 $Y=1.36
Ri687	Set#98	Set#97	   10.0000	$mt1	$X=26.5 $Y=4.81
Ri688	Set#98	Set#95	2.623e-03	$mt1	$X=26.5 $Y=4.81
Ri1032	Set#103	Set#108	    1.7259	$mt1
+ $X=31.4325 $Y=1.36
Ri40	avC7#2	avC7	   11.4000	$mt1	$X=-2.685 $Y=4.6
Ri65	avC7#8	avC7#9	1.118e-02	$mt1	$X=-0.81 $Y=5.0825
Ri66	avC7#10	avC7#9	8.163e-03	$mt1	$X=-0.81 $Y=5.035
Ri67	avC7#11	avC7#7	8.163e-03	$mt1	$X=-0.86 $Y=5.09
Ri68	avC7#11	avC7#8	8.163e-03	$mt1	$X=-0.81 $Y=5.0825
Ri69	avC7#11	avC7#10	1.118e-02	$mt1
+ $X=-0.835 $Y=5.0585
Ri107	avC7#19	avC7#16	8.163e-03	$mt1	$X=0.86 $Y=0.99
Ri108	avC7#21	avC7#20	8.163e-03	$mt1
+ $X=0.81 $Y=1.045
Ri109	avC7#21	avC7#19	1.294e-02	$mt1
+ $X=0.835 $Y=1.0175
Ri145	avC7#25	avC7#24	   11.4000	$mt1	$X=2.555 $Y=4.6
Ri146	avC7#23	avC7#29	   11.4000	$mt1
+ $X=2.685 $Y=1.48
Ri194	avC7#41	avC7#36	1.118e-02	$mt1
+ $X=4.43 $Y=5.0825
Ri195	avC7#42	avC7#36	8.163e-03	$mt1
+ $X=4.43 $Y=5.035
Ri196	avC7#43	avC7#40	8.163e-03	$mt1	$X=4.38 $Y=5.09
Ri197	avC7#43	avC7#41	8.163e-03	$mt1
+ $X=4.43 $Y=5.0825
Ri198	avC7#43	avC7#42	1.118e-02	$mt1
+ $X=4.405 $Y=5.0585
Ri270	avC7#68	avC7#67	   11.4000	$mt1	$X=7.795 $Y=4.6
Ri300	avC7#88	avC7#89	1.118e-02	$mt1
+ $X=9.67 $Y=5.0825
Ri301	avC7#90	avC7#89	8.163e-03	$mt1
+ $X=9.67 $Y=5.035
Ri302	avC7#91	avC7#87	8.163e-03	$mt1	$X=9.62 $Y=5.09
Ri303	avC7#91	avC7#88	8.163e-03	$mt1
+ $X=9.67 $Y=5.0825
Ri304	avC7#91	avC7#90	1.118e-02	$mt1
+ $X=9.645 $Y=5.0585
Ri313	avC7#100	avC7#46	    0.2888	$mt1
+ $X=10.12 $Y=1.6455
Ri314	avC7#101	avC7#100	4.129e-02	$mt1
+ $X=10.12 $Y=1.305
Ri315	avC7#101	avC7#50	    0.2955	$mt1
+ $X=10.12 $Y=1.003
Ri372	avC7#115	avC7#116	8.163e-03	$mt1	$X=12.6 $Y=0.99
Ri373	avC7#118	avC7#117	8.163e-03	$mt1
+ $X=12.55 $Y=1.045
Ri374	avC7#118	avC7#115	1.294e-02	$mt1
+ $X=12.575 $Y=1.0175
Ri379	avC7#124	avC7#120	    1.4000	$mt1
+ $X=13.035 $Y=4.6
Ri399	avC7#129	avC7#130	   11.4000	$mt1
+ $X=14.425 $Y=1.48
Ri424	avC7#133	avC7#134	1.118e-02	$mt1
+ $X=14.91 $Y=5.0825
Ri425	avC7#135	avC7#134	8.163e-03	$mt1
+ $X=14.91 $Y=5.035
Ri426	avC7#136	avC7#132	8.163e-03	$mt1
+ $X=14.86 $Y=5.09
Ri427	avC7#136	avC7#133	8.163e-03	$mt1
+ $X=14.91 $Y=5.0825
Ri428	avC7#136	avC7#135	1.118e-02	$mt1
+ $X=14.885 $Y=5.0585
Ri509	avC7#145	avC7#144	   11.4000	$mt1
+ $X=18.275 $Y=4.6
Ri542	avC7#149	avC7#150	1.118e-02	$mt1
+ $X=20.15 $Y=5.0825
Ri543	avC7#151	avC7#150	8.163e-03	$mt1
+ $X=20.15 $Y=5.035
Ri544	avC7#153	avC7#152	8.163e-03	$mt1	$X=20.1 $Y=5.09
Ri545	avC7#153	avC7#149	8.163e-03	$mt1
+ $X=20.15 $Y=5.0825
Ri546	avC7#153	avC7#151	1.118e-02	$mt1
+ $X=20.125 $Y=5.0585
Ri582	avC7#162	avC7#159	8.163e-03	$mt1
+ $X=21.82 $Y=0.99
Ri583	avC7#164	avC7#163	8.163e-03	$mt1
+ $X=21.77 $Y=1.045
Ri584	avC7#164	avC7#162	1.294e-02	$mt1
+ $X=21.795 $Y=1.0175
Ri620	avC7#168	avC7#167	   11.4000	$mt1
+ $X=23.515 $Y=4.6
Ri621	avC7#166	avC7#172	   11.4000	$mt1
+ $X=23.645 $Y=1.48
Ri669	avC7#184	avC7#179	1.118e-02	$mt1
+ $X=25.39 $Y=5.0825
Ri670	avC7#185	avC7#179	8.163e-03	$mt1
+ $X=25.39 $Y=5.035
Ri671	avC7#186	avC7#183	8.163e-03	$mt1
+ $X=25.34 $Y=5.09
Ri672	avC7#186	avC7#184	8.163e-03	$mt1
+ $X=25.39 $Y=5.0825
Ri673	avC7#186	avC7#185	1.118e-02	$mt1
+ $X=25.365 $Y=5.0585
Ri714	avC7#192	avC7#189	8.163e-03	$mt1
+ $X=27.06 $Y=0.99
Ri715	avC7#194	avC7#193	8.163e-03	$mt1
+ $X=27.01 $Y=1.045
Ri716	avC7#194	avC7#192	1.294e-02	$mt1
+ $X=27.035 $Y=1.0175
Ri752	avC7#198	avC7#197	   11.4000	$mt1
+ $X=28.755 $Y=4.6
Ri753	avC7#196	avC7#202	   11.4000	$mt1
+ $X=28.885 $Y=1.48
Ri801	avC7#214	avC7#209	1.118e-02	$mt1
+ $X=30.63 $Y=5.0825
Ri802	avC7#215	avC7#209	8.163e-03	$mt1
+ $X=30.63 $Y=5.035
Ri803	avC7#216	avC7#213	8.163e-03	$mt1
+ $X=30.58 $Y=5.09
Ri804	avC7#216	avC7#214	8.163e-03	$mt1
+ $X=30.63 $Y=5.0825
Ri805	avC7#216	avC7#215	1.118e-02	$mt1
+ $X=30.605 $Y=5.0585
Ri20	avC8	avC8#6	    1.4328	$mt1	$X=-4.1625 $Y=4.835
Ri117	avC8#11	avC8#13	    1.4328	$mt1
+ $X=1.0775 $Y=4.835
Ri186	avC8#21	avC8#23	1.778e-02	$mt1
+ $X=4.16 $Y=1.235
Ri242	avC8#31	avC8#36	    1.4328	$mt1
+ $X=6.3175 $Y=4.835
Ri325	avC8#42	avC8#41	   15.0000	$mt1
+ $X=11.06 $Y=1.73
Ri326	avC8#42	avC8#43	    1.4000	$mt1
+ $X=11.06 $Y=1.73
Ri327	avC8#45	avC8#44	   15.0000	$mt1
+ $X=11.06 $Y=0.775
Ri328	avC8#45	avC8#46	    1.4000	$mt1
+ $X=11.06 $Y=0.775
Ri349	avC8#49	avC8#51	    1.4328	$mt1
+ $X=11.5575 $Y=4.835
Ri448	avC8#63	avC8#65	1.778e-02	$mt1
+ $X=15.9 $Y=1.235
Ri474	avC8#73	avC8#75	    1.4328	$mt1
+ $X=16.7975 $Y=4.835
Ri592	avC8#83	avC8#85	    1.4328	$mt1
+ $X=22.0375 $Y=4.835
Ri661	avC8#93	avC8#95	1.778e-02	$mt1
+ $X=25.12 $Y=1.235
Ri724	avC8#103	avC8#105	    1.4328	$mt1
+ $X=27.2775 $Y=4.835
Ri793	avC8#113	avC8#115	1.778e-02	$mt1
+ $X=30.36 $Y=1.235
Ri684	I390/avC10#3	I390/avC10	    1.4256	$mt1
+ $X=26.46 $Y=5.535
Ri686	I390/avC10#3	I390/avC10#2	   15.0000	$mt1
+ $X=26.46 $Y=5.49
Ri717	I390/avC10#8	I390/avC10#7	    0.1093	$mt1	$X=27.3 $Y=4.15
Ri719	I390/avC10#8	I390/avC10#11	9.333e-02	$mt1
+ $X=27.29 $Y=4.15
Ri720	I390/avC10#8	I390/avC10#9	    7.5000	$mt1	$X=27.3 $Y=4.15
Ri742	I390/avC10#13	I390/avC10#15	    0.4367	$mt1
+ $X=28.24 $Y=5.133
Ri743	I390/avC10#15	I390/avC10#16	    0.6200	$mt1
+ $X=28.24 $Y=4.6135
Ri744	I390/avC10#16	I390/avC10#17	2.615e-02	$mt1
+ $X=28.24 $Y=3.95
Ri746	I390/avC10#13	I390/avC10#12	   15.0000	$mt1
+ $X=28.24 $Y=5.535
Ri747	I390/avC10#16	I390/avC10#18	    5.0000	$mt1
+ $X=28.24 $Y=3.95
Ri749	I390/I0/avC9	I390/I0/avC9#7	2.667e-03	$mt1
+ $X=28.6725 $Y=3.945
Ri777	I390/I0/avC9#10	I390/I0/avC9#11	2.667e-03	$mt1
+ $X=29.5875 $Y=3.945
Ri779	I390/I0/avC9#10	I390/I0/avC9#12	    5.0000	$mt1
+ $X=29.6 $Y=3.95
Ri795	I390/I0/avC7#9	I390/I0/avC7#7	    0.5283	$mt1	$X=30.4 $Y=4.31
Ri796	I390/I0/avC7#9	I390/I0/avC7	    5.4073	$mt1	$X=30 $Y=4.88
Ri797	I390/I0/avC7#11	I390/I0/avC7#9	    0.4750	$mt1
+ $X=30.26 $Y=5.1325
Ri799	I390/I0/avC7#7	I390/I0/avC7#6	   15.0000	$mt1
+ $X=30.54 $Y=4.13
Ri800	I390/I0/avC7#11	I390/I0/avC7#10	   15.0000	$mt1
+ $X=30.54 $Y=5.445
Ri557	I391/avC10#3	I391/avC10	    1.4256	$mt1
+ $X=21.22 $Y=5.535
Ri559	I391/avC10#3	I391/avC10#2	   15.0000	$mt1
+ $X=21.22 $Y=5.49
Ri585	I391/avC10#8	I391/avC10#7	    0.1093	$mt1
+ $X=22.06 $Y=4.15
Ri587	I391/avC10#8	I391/avC10#11	9.333e-02	$mt1
+ $X=22.05 $Y=4.15
Ri588	I391/avC10#8	I391/avC10#9	    7.5000	$mt1
+ $X=22.06 $Y=4.15
Ri610	I391/avC10#13	I391/avC10#15	    0.4367	$mt1	$X=23 $Y=5.133
Ri611	I391/avC10#15	I391/avC10#16	    0.6200	$mt1	$X=23 $Y=4.6135
Ri612	I391/avC10#16	I391/avC10#17	2.615e-02	$mt1	$X=23 $Y=3.95
Ri614	I391/avC10#13	I391/avC10#12	   15.0000	$mt1	$X=23 $Y=5.535
Ri615	I391/avC10#16	I391/avC10#18	    5.0000	$mt1	$X=23 $Y=3.95
Ri617	I391/I0/avC9	I391/I0/avC9#7	2.667e-03	$mt1
+ $X=23.4325 $Y=3.945
Ri645	I391/I0/avC9#10	I391/I0/avC9#11	2.667e-03	$mt1
+ $X=24.3475 $Y=3.945
Ri647	I391/I0/avC9#10	I391/I0/avC9#12	    5.0000	$mt1
+ $X=24.36 $Y=3.95
Ri663	I391/I0/avC7#9	I391/I0/avC7#7	    0.5283	$mt1
+ $X=25.16 $Y=4.31
Ri664	I391/I0/avC7#9	I391/I0/avC7	    5.4073	$mt1
+ $X=24.76 $Y=4.88
Ri665	I391/I0/avC7#11	I391/I0/avC7#9	    0.4750	$mt1
+ $X=25.02 $Y=5.1325
Ri667	I391/I0/avC7#7	I391/I0/avC7#6	   15.0000	$mt1	$X=25.3 $Y=4.13
Ri668	I391/I0/avC7#11	I391/I0/avC7#10	   15.0000	$mt1
+ $X=25.3 $Y=5.445
Ri449	I392/avC10#3	I392/avC10	    1.4256	$mt1
+ $X=15.98 $Y=5.535
Ri451	I392/avC10#3	I392/avC10#2	   15.0000	$mt1
+ $X=15.98 $Y=5.49
Ri467	I392/avC10#8	I392/avC10#7	    0.1093	$mt1
+ $X=16.82 $Y=4.15
Ri469	I392/avC10#8	I392/avC10#11	9.333e-02	$mt1
+ $X=16.81 $Y=4.15
Ri470	I392/avC10#8	I392/avC10#9	    7.5000	$mt1
+ $X=16.82 $Y=4.15
Ri488	I392/avC10#13	I392/avC10#15	    0.4367	$mt1
+ $X=17.76 $Y=5.133
Ri489	I392/avC10#15	I392/avC10#16	    0.6200	$mt1
+ $X=17.76 $Y=4.6135
Ri490	I392/avC10#16	I392/avC10#17	2.615e-02	$mt1
+ $X=17.76 $Y=3.95
Ri492	I392/avC10#13	I392/avC10#12	   15.0000	$mt1
+ $X=17.76 $Y=5.535
Ri493	I392/avC10#16	I392/avC10#18	    5.0000	$mt1
+ $X=17.76 $Y=3.95
Ri495	I392/I0/avC9	I392/I0/avC9#7	2.667e-03	$mt1
+ $X=18.1925 $Y=3.945
Ri521	I392/I0/avC9#10	I392/I0/avC9#11	2.667e-03	$mt1
+ $X=19.1075 $Y=3.945
Ri523	I392/I0/avC9#10	I392/I0/avC9#12	    5.0000	$mt1
+ $X=19.12 $Y=3.95
Ri532	I392/I0/avC7#9	I392/I0/avC7#7	    0.5283	$mt1
+ $X=19.92 $Y=4.31
Ri533	I392/I0/avC7#9	I392/I0/avC7	    5.4073	$mt1
+ $X=19.52 $Y=4.88
Ri534	I392/I0/avC7#11	I392/I0/avC7#9	    0.4750	$mt1
+ $X=19.78 $Y=5.1325
Ri536	I392/I0/avC7#7	I392/I0/avC7#6	   15.0000	$mt1
+ $X=20.06 $Y=4.13
Ri537	I392/I0/avC7#11	I392/I0/avC7#10	   15.0000	$mt1
+ $X=20.06 $Y=5.445
Ri320	I393/avC10#3	I393/avC10	    1.4256	$mt1
+ $X=10.74 $Y=5.535
Ri322	I393/avC10#3	I393/avC10#2	   15.0000	$mt1
+ $X=10.74 $Y=5.49
Ri341	I393/avC10#8	I393/avC10#7	    0.1093	$mt1
+ $X=11.58 $Y=4.15
Ri343	I393/avC10#8	I393/avC10#11	9.333e-02	$mt1
+ $X=11.57 $Y=4.15
Ri344	I393/avC10#8	I393/avC10#9	    7.5000	$mt1
+ $X=11.58 $Y=4.15
Ri359	I393/avC10#13	I393/avC10#15	    0.4367	$mt1
+ $X=12.52 $Y=5.133
Ri360	I393/avC10#15	I393/avC10#16	    0.6200	$mt1
+ $X=12.52 $Y=4.6135
Ri361	I393/avC10#16	I393/avC10#17	2.615e-02	$mt1
+ $X=12.52 $Y=3.95
[...]
C7712	I392/I0/avC9#11	gnd!	4.85093e-18	$X=19.0015 $Y=3.937
C7713	avC17#12	gnd!	7.00211e-19	$X=19.7665 $Y=1.804
C7714	avC17#11	gnd!	2.57771e-17	$X=19.807 $Y=0.8355
C7715	CLK#152	gnd!	1.23958e-18	$X=20.1415 $Y=4.729
C7716	avC7#150	gnd!	4.03195e-19	$X=20.1535 $Y=5.022
C7717	avC17#13	gnd!	5.32193e-19	$X=20.373 $Y=1.918
C7718	I391/avC10	gnd!	1.18695e-18	$X=21.215 $Y=5.5385
C7719	Set#77	gnd!	9.21466e-19	$X=21.183 $Y=4.727
C7720	avC7#163	gnd!	4.21319e-18	$X=21.757 $Y=1.054
C7721	CLK#160	gnd!	3.75026e-18	$X=21.763 $Y=1.3535
C7722	I391/avC10#11	gnd!	1.04882e-19	$X=22.169 $Y=4.0935
C7723	I391/avC10#7	gnd!	1.12291e-19	$X=22.054 $Y=4.352
C7724	avC8#85	gnd!	6.89374e-19	$X=22.0995 $Y=4.7085
C7725	CLK#165	gnd!	9.51925e-19	$X=22.5925 $Y=5.0195
C7726	I396/I0/avC9#4	gnd!	3.48212e-18	$X=22.8775 $Y=2.129
C7727	I391/avC10#17	gnd!	3.62247e-18	$X=22.819 $Y=4.0445
C7728	I391/I0/avC9#7	gnd!	2.43845e-18	$X=23.4955 $Y=3.9295
C7729	avC7#168	gnd!	1.28032e-18	$X=23.539 $Y=4.6975
C7730	I396/I0/avC8	gnd!	1.54509e-16	$X=23.924 $Y=0.543
C7731	avC7#166	gnd!	6.6797e-18	$X=23.5715 $Y=1.37
C7732	I396/I0/avC9#8	gnd!	2.4468e-18	$X=23.61 $Y=2.1405
C7733	I396/avC10#2	gnd!	9.79484e-19	$X=24.2995 $Y=1.905
C7734	I391/I0/avC9#11	gnd!	3.75037e-18	$X=24.229 $Y=3.937
C7735	CLK#172	gnd!	9.1074e-19	$X=24.543 $Y=1.0535
C7736	avC8#95	gnd!	3.44664e-18	$X=25.1245 $Y=1.251
C7737	vdd!#66	gnd!	2.27649e-17	$X=25.0815 $Y=0.589
C7738	I396/avC10#9	gnd!	3.94199e-19	$X=25.086 $Y=1.762
C7739	I396/avC10#13	gnd!	1.44923e-19	$X=24.9655 $Y=2.082
C7740	CLK#188	gnd!	1.73325e-18	$X=25.38 $Y=4.721
C7741	avC7#179	gnd!	4.03195e-19	$X=25.391 $Y=5.022
C7742	I396/avC10#18	gnd!	2.12917e-17	$X=25.9195 $Y=0.534
C7743	vdd!#71	gnd!	1.62089e-18	$X=25.929 $Y=1.993
C7744	Set#93	gnd!	2.94236e-18	$X=26.279 $Y=1.4855
C7745	I390/avC10	gnd!	1.18695e-18	$X=26.449 $Y=5.5385
C7746	Set#95	gnd!	9.23796e-19	$X=26.4205 $Y=4.727
C7747	avC7#193	gnd!	2.94461e-18	$X=26.9945 $Y=1.054
C7748	CLK#192	gnd!	5.2552e-18	$X=26.999 $Y=1.3535
C7749	I390/avC10#11	gnd!	1.04882e-19	$X=27.4005 $Y=4.0935
C7750	I390/avC10#7	gnd!	1.12291e-19	$X=27.291 $Y=4.352
C7751	avC8#105	gnd!	6.89374e-19	$X=27.3355 $Y=4.7085
C7752	CLK#197	gnd!	9.51925e-19	$X=27.8275 $Y=5.0195
C7753	I389/I0/avC9#4	gnd!	3.8596e-18	$X=28.105 $Y=2.129
C7754	I390/avC10#17	gnd!	3.62215e-18	$X=28.048 $Y=4.0445
C7755	I390/I0/avC9#7	gnd!	2.42397e-18	$X=28.723 $Y=3.9295
C7756	avC7#198	gnd!	1.33836e-18	$X=28.768 $Y=4.6975
C7757	I389/I0/avC8	gnd!	1.54164e-16	$X=29.0675 $Y=0.543
C7758	avC7#196	gnd!	6.6797e-18	$X=28.8 $Y=1.37
C7759	I389/I0/avC9#8	gnd!	2.4468e-18	$X=28.8375 $Y=2.1405
C7760	I389/avC10#2	gnd!	1.56106e-18	$X=29.532 $Y=1.905
C7761	I390/I0/avC9#11	gnd!	3.723e-18	$X=29.4565 $Y=3.937
C7762	CLK#204	gnd!	6.47321e-19	$X=29.778 $Y=1.0535
C7763	avC8#115	gnd!	3.41273e-18	$X=30.3585 $Y=1.251
C7764	vdd!#82	gnd!	2.20631e-17	$X=30.3145 $Y=0.589
C7765	I389/avC10#9	gnd!	3.76371e-19	$X=30.3205 $Y=1.762
C7766	I389/avC10#13	gnd!	4.28812e-19	$X=30.1995 $Y=2.082
C7767	CLK#220	gnd!	1.14977e-18	$X=30.6165 $Y=4.721
C7768	avC7#209	gnd!	1.93812e-21	$X=30.6285 $Y=5.022
C7769	avC10#4	gnd!	3.48969e-18	$X=30.738 $Y=2.428
C7770	I389/avC10#18	gnd!	3.58502e-17	$X=31.154 $Y=0.534
C7771	vdd!#92	gnd!	5.22173e-18	$X=31.1645 $Y=1.993
C7772	avC10#10	gnd!	4.76903e-19	$X=31.186 $Y=4.906
C7773	Set#108	gnd!	4.74797e-17	$X=31.632 $Y=1.4855
C7774	vdd!#89	gnd!	9.13631e-18	$X=13.5995 $Y=1.7265
C7775	I400/avC10#9	gnd!	1.23392e-20	$X=-4.1355 $Y=4.144
C7776	I400/I0/avC9	gnd!	7.95729e-19	$X=-3.061 $Y=3.5945
C7777	I400/I0/avC7#6	gnd!	8.12459e-19	$X=-0.864 $Y=4.125
C7778	vdd!#252	gnd!	2.45839e-20	$X=-0.265 $Y=4.125
C7779	vdd!#242	gnd!	4.73451e-19	$X=0.294 $Y=1.9475
C7780	I395/I0/avC7#4	gnd!	8.12603e-19	$X=0.8935 $Y=1.9475
C7781	I399/avC10#9	gnd!	1.23392e-20	$X=1.0965 $Y=4.144
C7782	I399/I0/avC9	gnd!	3.98239e-18	$X=2.1125 $Y=3.5945
C7783	I395/I0/avC9#2	gnd!	4.11245e-21	$X=1.865 $Y=2.1255
C7784	I395/avC10#3	gnd!	1.74126e-19	$X=3.2215 $Y=2.1255
C7785	I395/avC10#11	gnd!	2.71535e-19	$X=4.172 $Y=1.927
C7786	I399/I0/avC7#6	gnd!	1.28484e-18	$X=4.369 $Y=4.125
C7787	avC9	gnd!	4.38094e-19	$X=4.573 $Y=1.927
C7788	vdd!#229	gnd!	2.45839e-20	$X=4.9685 $Y=4.125
C7789	avC7#46	gnd!	7.81158e-18	$X=8.5665 $Y=1.875
C7790	I394/avC10#9	gnd!	1.23392e-20	$X=6.3285 $Y=4.144
C7791	I394/I0/avC9	gnd!	7.92095e-18	$X=7.287 $Y=3.5945
C7792	I394/I0/avC7#6	gnd!	1.48575e-18	$X=9.603 $Y=4.125
C7793	vdd!#195	gnd!	2.45839e-20	$X=10.202 $Y=4.125
C7794	avC8#41	gnd!	2.93428e-19	$X=11.0615 $Y=1.7275
C7795	I393/avC10#9	gnd!	1.23392e-20	$X=11.561 $Y=4.144
C7796	vdd!#179	gnd!	4.62357e-19	$X=12.02 $Y=1.9475
C7797	I393/I0/avC9	gnd!	8.40277e-18	$X=12.462 $Y=3.5945
C7798	I393/avC10#18	gnd!	8.0959e-20	$X=12.5195 $Y=3.941
C7799	I397/I0/avC7#4	gnd!	8.12352e-19	$X=12.6195 $Y=1.9475
C7800	I393/I0/avC9#12	gnd!	4.00554e-19	$X=13.8765 $Y=3.941
C7801	I393/I0/avC7#6	gnd!	1.88973e-18	$X=14.8365 $Y=4.125
C7802	I397/avC10#3	gnd!	1.69936e-19	$X=14.934 $Y=2.1255
C7803	I397/avC10#11	gnd!	2.71535e-19	$X=15.8945 $Y=1.927
C7804	avC16	gnd!	4.38265e-19	$X=16.293 $Y=1.927
C7805	I392/avC10#9	gnd!	1.23392e-20	$X=16.793 $Y=4.144
C7806	vdd!#153	gnd!	1.26739e-19	$X=17.2565 $Y=1.9885
C7807	I392/I0/avC9	gnd!	3.11632e-18	$X=17.637 $Y=3.5945
C7808	vdd!#140	gnd!	6.9724e-19	$X=18.187 $Y=2.0705
C7809	avC17#6	gnd!	6.18234e-19	$X=18.9855 $Y=2.0705
C7810	I398/avC7#14	gnd!	3.35303e-19	$X=20.075 $Y=1.9185
C7811	I392/I0/avC7#6	gnd!	8.12459e-19	$X=20.0705 $Y=4.125
C7812	vdd!#144	gnd!	2.45839e-20	$X=20.67 $Y=4.125
C7813	I396/I0/avC7#4	gnd!	1.90063e-18	$X=21.8285 $Y=1.9475
C7814	I391/avC10#9	gnd!	1.23392e-20	$X=22.0255 $Y=4.144
C7815	I391/I0/avC9	gnd!	3.46127e-18	$X=22.8115 $Y=3.5945
C7816	I396/I0/avC9#2	gnd!	4.11245e-21	$X=22.7755 $Y=2.1255
C7817	I396/avC10#3	gnd!	3.67895e-19	$X=24.132 $Y=2.1255
C7818	I396/avC10#11	gnd!	2.71535e-19	$X=25.101 $Y=1.927
C7819	I391/I0/avC7#6	gnd!	1.28484e-18	$X=25.3045 $Y=4.125
C7820	vdd!#121	gnd!	2.45839e-20	$X=25.9035 $Y=4.125
C7821	I390/avC10#9	gnd!	1.23392e-20	$X=27.2575 $Y=4.144
C7822	I390/I0/avC9	gnd!	3.41406e-18	$X=27.9865 $Y=3.5945
C7823	I389/avC10#3	gnd!	3.69635e-19	$X=29.36 $Y=2.1255
C7824	I389/avC10#11	gnd!	2.32369e-19	$X=30.333 $Y=1.927
C7825	I390/I0/avC7#6	gnd!	1.05749e-18	$X=30.538 $Y=4.125
C7826	vdd!#93	gnd!	3.17792e-19	$X=31.132 $Y=1.927
C7827	vdd!#86	gnd!	1.98386e-19	$X=31.1375 $Y=4.125
C7828	avC11	gnd!	4.40469e-19	$X=-4.5455 $Y=5.485
C7829	I400/I0/avC8	gnd!	5.29581e-18	$X=-2.9295 $Y=5.456
C7830	avC12#5	gnd!	2.44545e-19	$X=0.6895 $Y=5.485
C7831	I395/I0/avC7#6	gnd!	4.01916e-20	$X=0.8865 $Y=0.634
C7832	I399/I0/avC8	gnd!	4.93646e-18	$X=2.228 $Y=5.456
C7833	I395/I0/avC8#5	gnd!	1.479e-19	$X=1.852 $Y=0.544
C7834	vdd!#17	gnd!	1.98386e-20	$X=4.1655 $Y=0.589
C7835	avC9#5	gnd!	6.53963e-20	$X=4.566 $Y=0.589
C7836	avC13#5	gnd!	2.44545e-19	$X=5.925 $Y=5.485
C7837	I394/I0/avC8	gnd!	5.21011e-18	$X=7.3865 $Y=5.456
C7838	avC8#44	gnd!	2.69225e-20	$X=11.0605 $Y=0.774
C7839	avC14#5	gnd!	2.44545e-19	$X=11.1605 $Y=5.485
C7840	I393/I0/avC8	gnd!	5.26394e-18	$X=12.545 $Y=5.456
C7841	I397/I0/avC7#6	gnd!	4.01916e-20	$X=12.6195 $Y=0.634
C7842	I397/I0/avC8#5	gnd!	1.479e-19	$X=13.578 $Y=0.544
C7843	vdd!#41	gnd!	1.98386e-20	$X=15.897 $Y=0.589
C7844	avC16#6	gnd!	3.07665e-19	$X=16.296 $Y=0.589
C7845	avC15#5	gnd!	2.44545e-19	$X=16.396 $Y=5.485
C7846	I392/I0/avC8	gnd!	5.26394e-18	$X=17.7035 $Y=5.456
C7847	I398/avC6	gnd!	1.17619e-19	$X=19.511 $Y=0.659
C7848	avC18#5	gnd!	2.44545e-19	$X=21.6315 $Y=5.485
C7849	I391/I0/avC8	gnd!	4.93646e-18	$X=22.862 $Y=5.456
C7850	avC19#6	gnd!	2.44972e-19	$X=25.5085 $Y=0.589
C7851	avC20#5	gnd!	2.44545e-19	$X=26.8675 $Y=5.485
C7852	I390/I0/avC8	gnd!	4.93646e-18	$X=28.0205 $Y=5.456
C7853	avC10#6	gnd!	4.40469e-19	$X=30.744 $Y=0.589
C7854	Set#5	gnd!	1.15409e-18	$X=-4.9285 $Y=4.804
C7855	vdd!#264	gnd!	4.02213e-19	$X=-4.958 $Y=3.966
C7856	avC11#4	gnd!	2.19284e-18	$X=-4.551 $Y=4.85
C7857	avC11#13	gnd!	2.78449e-18	$X=-4.214 $Y=1.199
C7858	avC6#3	gnd!	9.49647e-18	$X=-3.147 $Y=1.2035
C7859	I400/avC10#15	gnd!	2.65079e-18	$X=-3.1915 $Y=4.87
C7860	11_B0#5	gnd!	1.22893e-17	$X=-1.1375 $Y=1.178
C7861	avC7#8	gnd!	2.44807e-19	$X=-0.8065 $Y=5.007
C7862	Set#16	gnd!	7.04417e-19	$X=0.3075 $Y=4.804
C7863	vdd!#248	gnd!	6.04592e-19	$X=0.275 $Y=3.966
C7864	avC12#10	gnd!	1.38714e-18	$X=0.684 $Y=4.7865
C7865	I395/I0/avC7#3	gnd!	1.83621e-18	$X=1.0505 $Y=1.768
C7866	I399/avC10#15	gnd!	2.65079e-18	$X=2.045 $Y=4.87
C7867	I395/I0/avC9#5	gnd!	8.47306e-18	$X=3.3865 $Y=2.423
C7868	I395/avC10#5	gnd!	2.49525e-18	$X=3.2045 $Y=1.2155
C7869	I395/avC10	gnd!	2.21611e-18	$X=3.205 $Y=2.302
C7870	avC7#41	gnd!	2.44807e-19	$X=4.4315 $Y=5.007
C7871	avC9#4	gnd!	2.58254e-18	$X=4.5635 $Y=1.227
C7872	vdd!#219	gnd!	7.55273e-20	$X=4.989 $Y=2.1055
C7873	Set#31	gnd!	7.04417e-19	$X=5.544 $Y=4.804
C7874	vdd!#222	gnd!	6.34527e-19	$X=5.5085 $Y=3.966
C7875	avC7#50	gnd!	4.51355e-16	$X=8.6085 $Y=0.634
C7876	avC13#10	gnd!	1.14981e-18	$X=5.922 $Y=4.7865
C7877	I394/avC10#15	gnd!	2.65079e-18	$X=7.282 $Y=4.87
C7878	avC7#88	gnd!	2.45655e-19	$X=9.67 $Y=5.007
C7879	avC7#101	gnd!	6.39026e-19	$X=10.1215 $Y=1.323
C7880	Set#47	gnd!	7.04417e-19	$X=10.7805 $Y=4.804
C7881	vdd!#188	gnd!	2.81712e-19	$X=10.7415 $Y=3.966
C7882	avC14#10	gnd!	1.03266e-18	$X=11.16 $Y=4.7865
C7883	CLK#112	gnd!	5.30898e-19	$X=12.5495 $Y=1.3665
C7884	I393/avC10#15	gnd!	2.65079e-18	$X=12.5195 $Y=4.87
C7885	I397/I0/avC7#3	gnd!	2.75723e-18	$X=12.779 $Y=1.768
C7886	I397/I0/avC9#5	gnd!	8.07417e-18	$X=14.9905 $Y=2.423
C7887	avC7#133	gnd!	2.44807e-19	$X=14.9085 $Y=5.007
C7888	I397/avC10#5	gnd!	2.4982e-18	$X=14.938 $Y=1.2155
C7889	I397/avC10	gnd!	6.50441e-19	$X=14.938 $Y=2.302
C7890	Set#62	gnd!	7.04417e-19	$X=16.017 $Y=4.804
C7891	vdd!#162	gnd!	6.3904e-19	$X=15.975 $Y=3.966
C7892	avC16#4	gnd!	2.02056e-18	$X=16.298 $Y=1.288
C7893	avC15#10	gnd!	1.38714e-18	$X=16.398 $Y=4.7865
C7894	vdd!#156	gnd!	5.19423e-19	$X=16.7145 $Y=2.1055
C7895	avC16#9	gnd!	1.88594e-17	$X=17.2085 $Y=1.0185
C7896	I392/avC10#15	gnd!	2.65079e-18	$X=17.7565 $Y=4.87
C7897	CLK#147	gnd!	5.76147e-19	$X=20.145 $Y=4.5845
C7898	avC7#149	gnd!	2.09221e-19	$X=20.1385 $Y=5.063
C7899	avC17#16	gnd!	5.19525e-19	$X=20.8065 $Y=1.8475
C7900	avC17#14	gnd!	6.51587e-18	$X=21.238 $Y=1.2155
C7901	Set#79	gnd!	5.17866e-19	$X=21.2535 $Y=4.804
C7902	vdd!#137	gnd!	6.04592e-19	$X=21.2085 $Y=3.966
C7903	avC18#10	gnd!	1.38714e-18	$X=21.6355 $Y=4.7865
C7904	I396/I0/avC7#3	gnd!	1.51345e-18	$X=21.9905 $Y=1.768
C7905	I391/avC10#15	gnd!	2.65079e-18	$X=22.9935 $Y=4.87
C7906	I396/I0/avC9#5	gnd!	8.94423e-18	$X=24.104 $Y=2.423
C7907	I396/avC10#5	gnd!	2.77006e-18	$X=24.153 $Y=1.2155
C7908	I396/avC10	gnd!	1.91761e-18	$X=24.1525 $Y=2.302
C7909	avC7#184	gnd!	2.47351e-19	$X=25.3855 $Y=5.007
C7910	avC19#4	gnd!	1.78538e-18	$X=25.514 $Y=1.292
C7911	vdd!#111	gnd!	4.91629e-19	$X=25.923 $Y=2.1055
C7912	Set#98	gnd!	7.00477e-19	$X=26.49 $Y=4.804
C7913	vdd!#114	gnd!	6.04592e-19	$X=26.442 $Y=3.966
C7914	avC20#10	gnd!	1.14981e-18	$X=26.8735 $Y=4.7865
C7915	I389/I0/avC7#3	gnd!	8.12439e-19	$X=27.2255 $Y=1.768
C7916	I390/avC10#15	gnd!	2.65079e-18	$X=28.2305 $Y=4.87
C7917	I389/I0/avC9#5	gnd!	8.63631e-18	$X=29.283 $Y=2.423
C7918	I389/avC10#5	gnd!	2.77151e-18	$X=29.39 $Y=1.2155
C7919	I389/avC10	gnd!	1.94652e-18	$X=29.3895 $Y=2.302
C7920	avC7#214	gnd!	1.14694e-18	$X=30.624 $Y=5.007
C7921	avC10#5	gnd!	2.7763e-18	$X=30.7495 $Y=1.227
C7922	vdd!#91	gnd!	1.74548e-17	$X=31.156 $Y=2.1055
C7923	avC11#2	gnd!	4.02221e-18	$X=-4.5505 $Y=5.3695
C7924	avC11#6	gnd!	1.93966e-18	$X=-4.545 $Y=4.1765
C7925	avC8#2	gnd!	1.65436e-18	$X=-4.335 $Y=4.883
C7926	I400/avC10#13	gnd!	2.03405e-19	$X=-3.19 $Y=5.435
C7927	avC7#3	gnd!	1.8647e-18	$X=-3.0245 $Y=4.1285
C7928	avC6#8	gnd!	1.13732e-17	$X=-3.5525 $Y=0.7275
C7929	I400/I0/avC8#6	gnd!	1.97963e-18	$X=-1.824 $Y=5.4085
C7930	I400/I0/avC7#7	gnd!	1.79932e-18	$X=-1.027 $Y=4.3055
C7931	I400/I0/avC7#9	gnd!	8.07479e-19	$X=-1.167 $Y=4.858
C7932	I400/I0/avC7#11	gnd!	1.99233e-18	$X=-1.031 $Y=5.381
C7933	avC7#11	gnd!	3.53945e-19	$X=-0.8045 $Y=5.129
C7934	CLK#10	gnd!	5.76147e-19	$X=-0.8025 $Y=4.5845
C7935	CLK#12	gnd!	7.76125e-19	$X=-0.8055 $Y=4.741
C7936	CLK#15	gnd!	7.07895e-19	$X=-1.093 $Y=4.711
C7937	avC12#2	gnd!	1.08629e-18	$X=-0.458 $Y=4.8585
C7938	11_B0#7	gnd!	8.38436e-18	$X=-1.6145 $Y=0.754
C7939	avC12#6	gnd!	1.95291e-18	$X=0.684 $Y=5.454
C7940	avC12#8	gnd!	3.4881e-19	$X=0.4055 $Y=5.1405
C7941	avC12#12	gnd!	5.18775e-19	$X=0.689 $Y=4.2215
C7942	CLK#22	gnd!	5.23521e-19	$X=0.8155 $Y=1.3665
C7943	avC7#19	gnd!	4.64641e-18	$X=0.8145 $Y=0.945
C7944	avC8#18	gnd!	1.77119e-18	$X=0.9 $Y=4.883
C7945	I395/I0/avC7#2	gnd!	3.32612e-18	$X=1.19 $Y=1.2145
C7946	I395/I0/avC7#7	gnd!	3.47353e-17	$X=1.047 $Y=0.694
C7947	I399/avC10#13	gnd!	2.1241e-19	$X=2.046 $Y=5.435
C7948	avC7#26	gnd!	1.25016e-18	$X=2.18 $Y=4.1285
C7949	I395/I0/avC8#6	gnd!	6.51411e-17	$X=1.8515 $Y=0.664
C7950	I395/avC10#7	gnd!	1.66061e-17	$X=3.2055 $Y=0.64
C7951	I399/I0/avC8#6	gnd!	2.48706e-18	$X=3.41 $Y=5.4085
C7952	CLK#34	gnd!	1.48966e-18	$X=1.8795 $Y=1.352
C7953	I399/I0/avC7#7	gnd!	2.99097e-18	$X=4.2075 $Y=4.3055
C7954	I399/I0/avC7#9	gnd!	8.07479e-19	$X=4.0675 $Y=4.858
C7955	I399/I0/avC7#11	gnd!	1.99233e-18	$X=4.205 $Y=5.381
C7956	CLK#40	gnd!	3.61363e-19	$X=4.1295 $Y=4.711
C7957	avC7#43	gnd!	3.53945e-19	$X=4.433 $Y=5.129
C7958	CLK#45	gnd!	5.76147e-19	$X=4.434 $Y=4.5845
C7959	CLK#47	gnd!	9.80697e-19	$X=4.432 $Y=4.741
C7960	avC9#2	gnd!	5.23854e-19	$X=4.567 $Y=1.9205
C7961	avC9#6	gnd!	1.43806e-17	$X=4.564 $Y=0.7065
C7962	Set#26	gnd!	9.64758e-19	$X=4.7765 $Y=1.226
C7963	avC13#2	gnd!	3.60321e-19	$X=4.777 $Y=4.8585
C7964	avC13#6	gnd!	2.05205e-18	$X=5.922 $Y=5.454
C7965	avC13#8	gnd!	3.4881e-19	$X=5.6415 $Y=5.1405
C7966	avC13#12	gnd!	5.18775e-19	$X=5.9245 $Y=4.2215
C7967	avC8#32	gnd!	1.45038e-18	$X=6.135 $Y=4.883
C7968	I394/avC10#13	gnd!	2.1241e-19	$X=7.283 $Y=5.435
C7969	avC7#69	gnd!	1.50164e-18	$X=7.385 $Y=4.1285
C7970	I394/I0/avC8#6	gnd!	1.97963e-18	$X=8.644 $Y=5.4085
C7971	I394/I0/avC7#7	gnd!	1.79985e-18	$X=9.4425 $Y=4.3055
C7972	I394/I0/avC7#9	gnd!	8.07479e-19	$X=9.3025 $Y=4.858
C7973	I394/I0/avC7#11	gnd!	1.99233e-18	$X=9.4415 $Y=5.381
C7974	avC7#91	gnd!	3.54339e-19	$X=9.6705 $Y=5.129
C7975	CLK#62	gnd!	5.76147e-19	$X=9.671 $Y=4.5845
C7976	CLK#64	gnd!	9.97397e-19	$X=9.6705 $Y=4.741
C7977	CLK#67	gnd!	1.7288e-19	$X=9.3535 $Y=4.711
C7978	CLK#75	gnd!	2.75928e-16	$X=8.5005 $Y=0.757
C7979	avC14#2	gnd!	1.3928e-18	$X=10.012 $Y=4.8585
C7980	avC14#6	gnd!	1.95291e-18	$X=11.16 $Y=5.454
C7981	avC14#8	gnd!	2.86274e-19	$X=10.8785 $Y=5.1405
C7982	avC14#12	gnd!	4.88415e-19	$X=11.1605 $Y=4.2215
C7983	avC8#52	gnd!	2.60544e-17	$X=11.589 $Y=1.4275
C7984	avC8#54	gnd!	2.54952e-18	$X=11.2185 $Y=1.4185
C7985	avC8#59	gnd!	1.86098e-18	$X=11.3705 $Y=4.883
C7986	I393/avC10#13	gnd!	6.27031e-19	$X=12.5195 $Y=5.435
C7987	avC7#115	gnd!	6.88332e-18	$X=12.5495 $Y=0.945
C7988	avC7#118	gnd!	1.00431e-18	$X=12.5495 $Y=1.068
C7989	avC7#121	gnd!	1.22381e-18	$X=12.59 $Y=4.1285
C7990	I397/I0/avC7#2	gnd!	3.89636e-18	$X=12.919 $Y=1.2145
C7991	I397/I0/avC7#7	gnd!	3.62705e-17	$X=12.779 $Y=0.694
C7992	I393/I0/avC8#6	gnd!	1.97963e-18	$X=13.878 $Y=5.4085
C7993	I397/I0/avC8#6	gnd!	6.55469e-17	$X=13.5785 $Y=0.664
C7994	I393/I0/avC7#7	gnd!	2.55766e-18	$X=14.6775 $Y=4.3055
C7995	I393/I0/avC7#9	gnd!	1.02984e-18	$X=14.5375 $Y=4.858
C7996	I393/I0/avC7#11	gnd!	1.99233e-18	$X=14.678 $Y=5.381
C7997	I397/avC10#7	gnd!	1.66261e-17	$X=14.938 $Y=0.64
C7998	avC7#136	gnd!	3.53945e-19	$X=14.9085 $Y=5.129
C7999	CLK#126	gnd!	5.76147e-19	$X=14.908 $Y=4.5845
C8000	CLK#128	gnd!	7.76125e-19	$X=14.9085 $Y=4.741
C8001	CLK#131	gnd!	1.22944e-18	$X=14.577 $Y=4.711
C8002	CLK#136	gnd!	2.43204e-18	$X=13.663 $Y=1.352
C8003	avC15#2	gnd!	1.08629e-18	$X=15.247 $Y=4.8585
C8004	avC15#6	gnd!	2.05205e-18	$X=16.398 $Y=5.454
C8005	avC15#8	gnd!	3.4881e-19	$X=16.113 $Y=5.1405
C8006	avC15#12	gnd!	1.54165e-18	$X=16.3965 $Y=4.2215
C8007	Set#70	gnd!	1.94615e-18	$X=16.506 $Y=1.226
C8008	avC8#79	gnd!	1.01353e-18	$X=16.6055 $Y=4.883
C8009	I392/avC10#13	gnd!	2.1241e-19	$X=17.756 $Y=5.435
C8010	avC16#2	gnd!	3.9754e-18	$X=16.2965 $Y=1.8535
C8011	avC16#5	gnd!	5.65812e-18	$X=16.573 $Y=0.9215
C8012	avC16#7	gnd!	1.13622e-17	$X=16.298 $Y=0.619
C8013	avC7#146	gnd!	4.29177e-18	$X=17.795 $Y=4.1285
C8014	I392/I0/avC8#6	gnd!	1.97963e-18	$X=19.112 $Y=5.4085
C8015	I398/avC6#2	gnd!	1.26781e-17	$X=19.5345 $Y=0.762
C8016	I398/avC6#4	gnd!	2.03105e-18	$X=19.41 $Y=1.566
C8017	I398/avC6#6	gnd!	9.30923e-18	$X=18.59 $Y=1.917
C8018	I398/avC7#12	gnd!	6.60728e-18	$X=18.8 $Y=2.7825
C8019	I392/I0/avC7#7	gnd!	3.30808e-18	$X=19.9125 $Y=4.3055
C8020	I392/I0/avC7#9	gnd!	8.07479e-19	$X=19.7725 $Y=4.858
C8021	I392/I0/avC7#11	gnd!	2.31035e-18	$X=19.9145 $Y=5.381
C8022	CLK#155	gnd!	7.07895e-19	$X=19.8005 $Y=4.711
C8023	I398/avC7#15	gnd!	7.28899e-19	$X=20.052 $Y=1.8435
C8024	avC18#2	gnd!	3.60321e-19	$X=20.482 $Y=4.8585
C8025	avC18#6	gnd!	1.95291e-18	$X=21.636 $Y=5.454
C8026	avC18#8	gnd!	3.4881e-19	$X=21.349 $Y=5.1405
C8027	avC18#12	gnd!	5.18775e-19	$X=21.632 $Y=4.2215
C8028	CLK#162	gnd!	5.23521e-19	$X=21.7645 $Y=1.3665
C8029	avC7#162	gnd!	5.48405e-18	$X=21.7655 $Y=0.945
C8030	avC7#164	gnd!	7.43506e-19	$X=21.7665 $Y=1.068
C8031	avC8#90	gnd!	1.33433e-18	$X=21.841 $Y=4.883
C8032	I396/I0/avC7#2	gnd!	3.25438e-18	$X=22.1305 $Y=1.2145
C8033	I396/I0/avC7#7	gnd!	3.56837e-17	$X=21.993 $Y=0.694
C8034	I391/avC10#13	gnd!	2.1241e-19	$X=22.9925 $Y=5.435
C8035	avC7#169	gnd!	1.25016e-18	$X=23.0005 $Y=4.1285
C8036	I396/I0/avC8#6	gnd!	6.57477e-17	$X=22.788 $Y=0.664
C8037	I396/avC10#7	gnd!	1.61032e-17	$X=24.152 $Y=0.64
C8038	I391/I0/avC8#6	gnd!	2.48706e-18	$X=24.346 $Y=5.4085
C8039	CLK#174	gnd!	4.73716e-18	$X=22.8315 $Y=1.352
C8040	I391/I0/avC7#7	gnd!	2.45999e-18	$X=25.1475 $Y=4.3055
C8041	I391/I0/avC7#9	gnd!	8.07479e-19	$X=25.0075 $Y=4.858
C8042	I391/I0/avC7#11	gnd!	1.99233e-18	$X=25.151 $Y=5.381
C8043	CLK#180	gnd!	7.11116e-19	$X=25.024 $Y=4.711
C8044	avC7#186	gnd!	3.55126e-19	$X=25.3835 $Y=5.129
C8045	CLK#185	gnd!	5.76147e-19	$X=25.382 $Y=4.5845
C8046	CLK#187	gnd!	5.23521e-19	$X=25.385 $Y=4.741
C8047	Set#89	gnd!	9.32672e-19	$X=25.7175 $Y=1.226
C8048	avC20#2	gnd!	3.60321e-19	$X=25.717 $Y=4.8585
C8049	avC19#2	gnd!	2.67868e-20	$X=25.509 $Y=1.8535
C8050	avC19#5	gnd!	2.20805e-18	$X=25.791 $Y=0.939
C8051	avC19#7	gnd!	1.13272e-17	$X=25.514 $Y=0.624
C8052	avC20#6	gnd!	1.95291e-18	$X=26.874 $Y=5.454
C8053	avC20#8	gnd!	3.4881e-19	$X=26.585 $Y=5.1405
C8054	avC20#12	gnd!	5.18775e-19	$X=26.868 $Y=4.2215
C8055	CLK#194	gnd!	5.23521e-19	$X=27.002 $Y=1.3665
C8056	avC7#192	gnd!	6.12055e-18	$X=27.003 $Y=0.945
C8057	avC7#194	gnd!	1.13182e-18	$X=27.005 $Y=1.068
C8058	avC8#110	gnd!	1.33328e-18	$X=27.0765 $Y=4.883
C8059	I389/I0/avC7#2	gnd!	3.6583e-18	$X=27.3655 $Y=1.2145
C8060	I389/I0/avC7#7	gnd!	3.7419e-17	$X=27.2295 $Y=0.694
C8061	I390/avC10#13	gnd!	2.1241e-19	$X=28.229 $Y=5.435
C8062	avC7#199	gnd!	1.22428e-18	$X=28.2055 $Y=4.1285
C8063	I389/I0/avC8#6	gnd!	6.60001e-17	$X=28.022 $Y=0.664
C8064	I389/avC10#7	gnd!	1.60942e-17	$X=29.3885 $Y=0.64
C8065	I390/I0/avC8#6	gnd!	2.2213e-18	$X=29.58 $Y=5.4085
C8066	CLK#206	gnd!	4.83384e-18	$X=28.0595 $Y=1.352
C8067	I390/I0/avC7#7	gnd!	2.38538e-18	$X=30.3825 $Y=4.3055
C8068	I390/I0/avC7#9	gnd!	5.01367e-19	$X=30.2425 $Y=4.858
C8069	I390/I0/avC7#11	gnd!	2.57021e-19	$X=30.3875 $Y=5.381
C8070	CLK#213	gnd!	8.62695e-21	$X=30.255 $Y=4.711
C8071	avC7#216	gnd!	1.83721e-19	$X=30.6215 $Y=5.129
C8072	CLK#217	gnd!	2.62425e-19	$X=30.619 $Y=4.5845
C8073	CLK#219	gnd!	8.01263e-19	$X=30.623 $Y=4.741
C8074	avC10#2	gnd!	1.54151e-18	$X=30.7425 $Y=1.8905
C8075	avC10#7	gnd!	1.22633e-17	$X=30.749 $Y=0.7065
C8076	vdd!#109	gnd!	1.8684e-19	$X=26.449 $Y=2.0555
C8077	vdd!#135	gnd!	7.04303e-19	$X=21.213 $Y=2.0555
C8078	vdd!#141	gnd!	1.8847e-18	$X=18.173 $Y=2.161
C8079	vdd!#145	gnd!	1.53585e-18	$X=20.6935 $Y=4.019
C8080	vdd!#154	gnd!	1.07016e-19	$X=17.2365 $Y=2.1805
C8081	vdd!#167	gnd!	3.16034e-19	$X=15.457 $Y=4.019
C8082	vdd!#180	gnd!	4.11031e-19	$X=12 $Y=2.0555
C8083	vdd!#196	gnd!	4.25008e-19	$X=10.221 $Y=4.019
C8084	vdd!#230	gnd!	4.3909e-19	$X=4.985 $Y=4.019
C8085	vdd!#253	gnd!	1.53585e-18	$X=-0.2505 $Y=4.019
C8086	Set#104	gnd!	3.87691e-18	$X=30.953 $Y=1.226
C8087	avC10#14	gnd!	1.93812e-21	$X=30.952 $Y=4.8585
*
*
.ENDS LFSR_11_0
*
