*
*
*
*                       LINUX           Mon May 17 13:15:03 2021
*
*
*
*  PROGRAM  advgen
*
*  Name           : advgen - Quantus - (64-bit)
*  Version        : 20.1.2-p025
*  Build Date     : Thu Sep 3 13:54:09 PDT 2020
*
*  HSPICE LIBRARY
*
*!LENGTH_UNITS METERS
*
*
*

*
.SUBCKT LFSR_9_0 vdd! gnd! CLK Set 9_B0
*
*
*  caps2d version: 10
*
*
*       TRANSISTOR CARDS
*
*
MI334/avD1_1	I334/avC7#10	9_B0#22	gnd!#9	gnd!#1
+ nmos1v#20ivpcell#20gpdk090	L=1e-07	W=2.4e-07
+ AD=3.84e-14	AS=6.72e-14	PD=5.6e-07	PS=1.04e-06	simW=2.4e-07 fw=2.4e-07
MI334/avD1_2	avC17#19	avC18	I334/avC7#10	gnd!#1
+ nmos1v#20ivpcell#20gpdk090	L=1e-07	W=2.4e-07
+ AD=6.72e-14	AS=3.84e-14	PD=1.04e-06	PS=5.6e-07	simW=2.4e-07 fw=2.4e-07
MI334/avD1_3	I334/avC6#8	avC18#3	gnd!#12	gnd!#1
+ nmos1v#20ivpcell#20gpdk090	L=1e-07	W=4.8e-07
+ AD=1.344e-13	AS=1.344e-13	PD=1.52e-06	PS=1.52e-06	simW=4.8e-07 fw=4.8e-07
MI334/avD1_4	I334/avC8	I334/avC6#3	avC17#11	gnd!#1
+ nmos1v#20ivpcell#20gpdk090	L=1e-07	W=3.6e-07
+ AD=2.16e-14	AS=1.008e-13	PD=4.8e-07	PS=1.28e-06	simW=3.6e-07 fw=3.6e-07
MI334/avD1_5	gnd!#15	I334/avC7	I334/avC8	gnd!#1
+ nmos1v#20ivpcell#20gpdk090	L=1e-07	W=3.6e-07
+ AD=1.008e-13	AS=2.16e-14	PD=1.28e-06	PS=4.8e-07	simW=3.6e-07 fw=3.6e-07
MI10/avD1_1	9_B0#8	avC7#12	gnd!#83	gnd!#1
+ nmos1v#20ivpcell#20gpdk090	L=1e-07	W=3e-07
+ AD=8.4e-14	AS=8.4e-14	PD=1.16e-06	PS=1.16e-06	simW=3e-07 fw=3e-07
MI4/avD1_1	avC7#4	avC6#13	gnd!#86	gnd!#1
+ nmos1v#20ivpcell#20gpdk090	L=1e-07	W=1.2e-07
+ AD=6.96e-14	AS=6.96e-14	PD=1.16e-06	PS=1.16e-06	simW=1.2e-07 fw=1.2e-07
MI337/I1/avD1_1	avC15#5	avC9#77	vdd!#52	gnd!#1
+ nmos1v#20ivpcell#20gpdk090	L=1e-07	W=3e-07
+ AD=4.8e-14	AS=8.4e-14	PD=6.2e-07	PS=1.16e-06	simW=3e-07 fw=3e-07
MI337/I1/avD1_2	I337/avC10#2	Set#62	avC15#5	gnd!#1
+ nmos1v#20ivpcell#20gpdk090	L=1e-07	W=3e-07
+ AD=8.4e-14	AS=4.8e-14	PD=1.16e-06	PS=6.2e-07	simW=3e-07 fw=3e-07
MI337/I0/avD1_1	I337/I0/avC10	avC17#4	gnd!#20	gnd!#1
+ nmos1v#20ivpcell#20gpdk090	L=1e-07	W=2.4e-07
+ AD=1.44e-14	AS=6.72e-14	PD=3.6e-07	PS=1.04e-06	simW=2.4e-07 fw=2.4e-07
MI337/I0/avD1_2	I337/I0/avC7#10	avC8#162	I337/I0/avC10	gnd!#1
+ nmos1v#20ivpcell#20gpdk090	L=1e-07	W=2.4e-07
+ AD=6.72e-14	AS=1.44e-14	PD=1.04e-06	PS=3.6e-07	simW=2.4e-07 fw=2.4e-07
MI338/I1/avD1_1	avC14#5	avC9#59	vdd!#44	gnd!#1
+ nmos1v#20ivpcell#20gpdk090	L=1e-07	W=3e-07
+ AD=4.8e-14	AS=8.4e-14	PD=6.2e-07	PS=1.16e-06	simW=3e-07 fw=3e-07
MI338/I1/avD1_2	I338/avC10#2	Set#46	avC14#5	gnd!#1
+ nmos1v#20ivpcell#20gpdk090	L=1e-07	W=3e-07
+ AD=8.4e-14	AS=4.8e-14	PD=1.16e-06	PS=6.2e-07	simW=3e-07 fw=3e-07
MI338/I0/avD1_1	I338/I0/avC10	avC15#4	gnd!#97	gnd!#1
+ nmos1v#20ivpcell#20gpdk090	L=1e-07	W=2.4e-07
+ AD=1.44e-14	AS=6.72e-14	PD=3.6e-07	PS=1.04e-06	simW=2.4e-07 fw=2.4e-07
MI338/I0/avD1_2	I338/I0/avC7#10	avC8#132	I338/I0/avC10	gnd!#1
+ nmos1v#20ivpcell#20gpdk090	L=1e-07	W=2.4e-07
+ AD=6.72e-14	AS=1.44e-14	PD=1.04e-06	PS=3.6e-07	simW=2.4e-07 fw=2.4e-07
MI339/I1/avD1_1	avC12#5	avC9#40	vdd!#28	gnd!#1
+ nmos1v#20ivpcell#20gpdk090	L=1e-07	W=3e-07
+ AD=4.8e-14	AS=8.4e-14	PD=6.2e-07	PS=1.16e-06	simW=3e-07 fw=3e-07
MI339/I1/avD1_2	I339/avC10#2	Set#30	avC12#5	gnd!#1
+ nmos1v#20ivpcell#20gpdk090	L=1e-07	W=3e-07
+ AD=8.4e-14	AS=4.8e-14	PD=1.16e-06	PS=6.2e-07	simW=3e-07 fw=3e-07
MI339/I0/avD1_1	I339/I0/avC10	avC14#4	gnd!#108	gnd!#1
+ nmos1v#20ivpcell#20gpdk090	L=1e-07	W=2.4e-07
+ AD=1.44e-14	AS=6.72e-14	PD=3.6e-07	PS=1.04e-06	simW=2.4e-07 fw=2.4e-07
MI339/I0/avD1_2	I339/I0/avC7#10	avC8#85	I339/I0/avC10	gnd!#1
+ nmos1v#20ivpcell#20gpdk090	L=1e-07	W=2.4e-07
+ AD=6.72e-14	AS=1.44e-14	PD=1.04e-06	PS=3.6e-07	simW=2.4e-07 fw=2.4e-07
MI340/I1/avD1_1	avC10#5	avC9#21	vdd!#12	gnd!#1
+ nmos1v#20ivpcell#20gpdk090	L=1e-07	W=3e-07
+ AD=4.8e-14	AS=8.4e-14	PD=6.2e-07	PS=1.16e-06	simW=3e-07 fw=3e-07
MI340/I1/avD1_2	I340/avC10#2	Set#14	avC10#5	gnd!#1
+ nmos1v#20ivpcell#20gpdk090	L=1e-07	W=3e-07
+ AD=8.4e-14	AS=4.8e-14	PD=1.16e-06	PS=6.2e-07	simW=3e-07 fw=3e-07
MI340/I0/avD1_1	I340/I0/avC10	avC12#4	gnd!#119	gnd!#1
+ nmos1v#20ivpcell#20gpdk090	L=1e-07	W=2.4e-07
+ AD=1.44e-14	AS=6.72e-14	PD=3.6e-07	PS=1.04e-06	simW=2.4e-07 fw=2.4e-07
MI340/I0/avD1_2	I340/I0/avC7#10	avC8#42	I340/I0/avC10	gnd!#1
+ nmos1v#20ivpcell#20gpdk090	L=1e-07	W=2.4e-07
+ AD=6.72e-14	AS=1.44e-14	PD=1.04e-06	PS=3.6e-07	simW=2.4e-07 fw=2.4e-07
MI341/I1/avD1_1	avC6	avC9#8	vdd!#4	gnd!#1	nmos1v#20ivpcell#20gpdk090
+ L=1e-07	W=3e-07
+ AD=4.8e-14	AS=8.4e-14	PD=6.2e-07	PS=1.16e-06
+ simW=3e-07 fw=3e-07
MI341/I1/avD1_2	I341/avC10#2	Set#6	avC6	gnd!#1
+ nmos1v#20ivpcell#20gpdk090	L=1e-07	W=3e-07
+ AD=8.4e-14	AS=4.8e-14	PD=1.16e-06	PS=6.2e-07	simW=3e-07 fw=3e-07
MI341/I0/avD1_1	I341/I0/avC10	avC10#4	gnd!#130	gnd!#1
+ nmos1v#20ivpcell#20gpdk090	L=1e-07	W=2.4e-07
+ AD=1.44e-14	AS=6.72e-14	PD=3.6e-07	PS=1.04e-06	simW=2.4e-07 fw=2.4e-07
MI341/I0/avD1_2	I341/I0/avC7#10	avC8#18	I341/I0/avC10	gnd!#1
+ nmos1v#20ivpcell#20gpdk090	L=1e-07	W=2.4e-07
+ AD=6.72e-14	AS=1.44e-14	PD=1.04e-06	PS=3.6e-07	simW=2.4e-07 fw=2.4e-07
MI336/I1/avD1_1	avC18#10	avC9#95	vdd!#68	gnd!#1
+ nmos1v#20ivpcell#20gpdk090	L=1e-07	W=3e-07
+ AD=4.8e-14	AS=8.4e-14	PD=6.2e-07	PS=1.16e-06	simW=3e-07 fw=3e-07
MI336/I1/avD1_2	I336/avC10#17	Set#75	avC18#10	gnd!#1
+ nmos1v#20ivpcell#20gpdk090	L=1e-07	W=3e-07
+ AD=8.4e-14	AS=4.8e-14	PD=1.16e-06	PS=6.2e-07	simW=3e-07 fw=3e-07
MI336/I0/avD1_1	I336/I0/avC10	avC16#4	gnd!#29	gnd!#1
+ nmos1v#20ivpcell#20gpdk090	L=1e-07	W=2.4e-07
+ AD=1.44e-14	AS=6.72e-14	PD=3.6e-07	PS=1.04e-06	simW=2.4e-07 fw=2.4e-07
MI336/I0/avD1_2	I336/I0/avC7#6	avC8#177	I336/I0/avC10	gnd!#1
+ nmos1v#20ivpcell#20gpdk090	L=1e-07	W=2.4e-07
+ AD=6.72e-14	AS=1.44e-14	PD=1.04e-06	PS=3.6e-07	simW=2.4e-07 fw=2.4e-07
MI335/I1/avD1_1	avC16#10	avC9#85	vdd!#57	gnd!#1
+ nmos1v#20ivpcell#20gpdk090	L=1e-07	W=3e-07
+ AD=4.8e-14	AS=8.4e-14	PD=6.2e-07	PS=1.16e-06	simW=3e-07 fw=3e-07
MI335/I1/avD1_2	I335/avC10#16	Set#67	avC16#10	gnd!#1
+ nmos1v#20ivpcell#20gpdk090	L=1e-07	W=3e-07
+ AD=8.4e-14	AS=4.8e-14	PD=1.16e-06	PS=6.2e-07	simW=3e-07 fw=3e-07
MI335/I0/avD1_1	I335/I0/avC10	avC13#14	gnd!#38	gnd!#1
+ nmos1v#20ivpcell#20gpdk090	L=1e-07	W=2.4e-07
+ AD=1.44e-14	AS=6.72e-14	PD=3.6e-07	PS=1.04e-06	simW=2.4e-07 fw=2.4e-07
MI335/I0/avD1_2	I335/I0/avC7#6	avC8#147	I335/I0/avC10	gnd!#1
+ nmos1v#20ivpcell#20gpdk090	L=1e-07	W=2.4e-07
+ AD=6.72e-14	AS=1.44e-14	PD=1.04e-06	PS=3.6e-07	simW=2.4e-07 fw=2.4e-07
MI331/I1/avD1_1	avC13#5	avC9#48	vdd!#33	gnd!#1
+ nmos1v#20ivpcell#20gpdk090	L=1e-07	W=3e-07
+ AD=4.8e-14	AS=8.4e-14	PD=6.2e-07	PS=1.16e-06	simW=3e-07 fw=3e-07
MI331/I1/avD1_2	I331/avC10#16	Set#37	avC13#5	gnd!#1
+ nmos1v#20ivpcell#20gpdk090	L=1e-07	W=3e-07
+ AD=8.4e-14	AS=4.8e-14	PD=1.16e-06	PS=6.2e-07	simW=3e-07 fw=3e-07
MI331/I0/avD1_1	I331/I0/avC10	avC11#4	gnd!#71	gnd!#1
+ nmos1v#20ivpcell#20gpdk090	L=1e-07	W=2.4e-07
+ AD=1.44e-14	AS=6.72e-14	PD=3.6e-07	PS=1.04e-06	simW=2.4e-07 fw=2.4e-07
MI331/I0/avD1_2	I331/I0/avC7#6	avC8#41	I331/I0/avC10	gnd!#1
+ nmos1v#20ivpcell#20gpdk090	L=1e-07	W=2.4e-07
+ AD=6.72e-14	AS=1.44e-14	PD=1.04e-06	PS=3.6e-07	simW=2.4e-07 fw=2.4e-07
MI330/I1/avD1_1	avC11#10	avC9#28	vdd!#17	gnd!#1
+ nmos1v#20ivpcell#20gpdk090	L=1e-07	W=3e-07
+ AD=4.8e-14	AS=8.4e-14	PD=6.2e-07	PS=1.16e-06	simW=3e-07 fw=3e-07
MI330/I1/avD1_2	I330/avC10#16	Set#19	avC11#10	gnd!#1
+ nmos1v#20ivpcell#20gpdk090	L=1e-07	W=3e-07
+ AD=8.4e-14	AS=4.8e-14	PD=1.16e-06	PS=6.2e-07	simW=3e-07 fw=3e-07
MI330/I0/avD1_1	I330/I0/avC10	9_B0#6	gnd!#80	gnd!#1
+ nmos1v#20ivpcell#20gpdk090	L=1e-07	W=2.4e-07
+ AD=1.44e-14	AS=6.72e-14	PD=3.6e-07	PS=1.04e-06	simW=2.4e-07 fw=2.4e-07
MI330/I0/avD1_2	I330/I0/avC7#6	avC8#11	I330/I0/avC10	gnd!#1
+ nmos1v#20ivpcell#20gpdk090	L=1e-07	W=2.4e-07
+ AD=6.72e-14	AS=1.44e-14	PD=1.04e-06	PS=3.6e-07	simW=2.4e-07 fw=2.4e-07
MI337/I0/avD1_3	I337/I0/avC8#5	I337/I0/avC7	gnd!#18	gnd!#1
+ nmos1v#20ivpcell#20gpdk090	L=1e-07	W=4.2e-07
+ AD=6.72e-14	AS=1.176e-13	PD=7.4e-07	PS=1.4e-06	M=2	simW=4.2e-07 fw=4.2e-07
MI335/I0/avD1_5	I335/avC10#6	CLK#157	I335/I0/avC8	gnd!#1
+ nmos1v#20ivpcell#20gpdk090	L=1e-07	W=4.2e-07
+ AD=6.72e-14	AS=1.176e-13	PD=7.4e-07	PS=1.4e-06	M=2	simW=4.2e-07 fw=4.2e-07
MI339/I0/avD1_5	I339/avC10#13	CLK#67	I339/I0/avC8	gnd!#1
+ nmos1v#20ivpcell#20gpdk090	L=1e-07	W=4.2e-07
+ AD=6.72e-14	AS=1.176e-13	PD=7.4e-07	PS=1.4e-06	M=2	simW=4.2e-07 fw=4.2e-07
MI330/I0/avD1_3	I330/I0/avC8#5	I330/I0/avC7	gnd!	gnd!#1
+ nmos1v#20ivpcell#20gpdk090	L=1e-07	W=4.2e-07
+ AD=6.72e-14	AS=1.176e-13	PD=7.4e-07	PS=1.4e-06	M=2	simW=4.2e-07 fw=4.2e-07
MI331/I0/avD1_3	I331/I0/avC8#5	I331/I0/avC7	gnd!	gnd!#1
+ nmos1v#20ivpcell#20gpdk090	L=1e-07	W=4.2e-07
+ AD=6.72e-14	AS=1.176e-13	PD=7.4e-07	PS=1.4e-06	M=2	simW=4.2e-07 fw=4.2e-07
MI336/I0/avD1_5	I336/avC10#6	CLK#180	I336/I0/avC8	gnd!#1
+ nmos1v#20ivpcell#20gpdk090	L=1e-07	W=4.2e-07
+ AD=6.72e-14	AS=1.176e-13	PD=7.4e-07	PS=1.4e-06	M=2	simW=4.2e-07 fw=4.2e-07
MI13/avD1_1	avC9#63	Set#52	gnd!	gnd!#1
+ nmos1v#20ivpcell#20gpdk090	L=1e-07	W=2.4e-07
+ AD=3.84e-14	AS=6.72e-14	PD=5.6e-07	PS=1.04e-06	M=2	simW=2.4e-07 fw=2.4e-07
MI335/I0/avD1_3	I335/I0/avC8#5	I335/I0/avC7	gnd!	gnd!#1
+ nmos1v#20ivpcell#20gpdk090	L=1e-07	W=4.2e-07
+ AD=6.72e-14	AS=1.176e-13	PD=7.4e-07	PS=1.4e-06	M=2	simW=4.2e-07 fw=4.2e-07
MI336/I0/avD1_3	I336/I0/avC8#5	I336/I0/avC7	gnd!	gnd!#1
+ nmos1v#20ivpcell#20gpdk090	L=1e-07	W=4.2e-07
+ AD=6.72e-14	AS=1.176e-13	PD=7.4e-07	PS=1.4e-06	M=2	simW=4.2e-07 fw=4.2e-07
MI337/I0/avD1_5	I337/avC10#12	CLK#154	I337/I0/avC8	gnd!#1
+ nmos1v#20ivpcell#20gpdk090	L=1e-07	W=4.2e-07
+ AD=6.72e-14	AS=1.176e-13	PD=7.4e-07	PS=1.4e-06	M=2	simW=4.2e-07 fw=4.2e-07
MI341/I0/avD1_5	I341/avC10#12	CLK#4	I341/I0/avC8	gnd!#1
+ nmos1v#20ivpcell#20gpdk090	L=1e-07	W=4.2e-07
+ AD=6.72e-14	AS=1.176e-13	PD=7.4e-07	PS=1.4e-06	M=2	simW=4.2e-07 fw=4.2e-07
MI340/I0/avD1_5	I340/avC10#12	CLK#35	I340/I0/avC8	gnd!#1
+ nmos1v#20ivpcell#20gpdk090	L=1e-07	W=4.2e-07
+ AD=6.72e-14	AS=1.176e-13	PD=7.4e-07	PS=1.4e-06	M=2	simW=4.2e-07 fw=4.2e-07
MI338/I0/avD1_3	I338/I0/avC8#5	I338/I0/avC7	gnd!#95	gnd!#1
+ nmos1v#20ivpcell#20gpdk090	L=1e-07	W=4.2e-07
+ AD=6.72e-14	AS=1.176e-13	PD=7.4e-07	PS=1.4e-06	M=2	simW=4.2e-07 fw=4.2e-07
MI17/avD1_1	avC8#70	CLK#93	gnd!	gnd!#1
+ nmos1v#20ivpcell#20gpdk090	L=1e-07	W=5.45e-07
+ AD=9.31455e-14	AS=9.31455e-14	PD=9.36363e-07	PS=9.36363e-07	M=11	simW=5.45e-07 fw=5.45e-07
MI331/I0/avD1_5	I331/avC10#6	CLK#61	I331/I0/avC8	gnd!#1
+ nmos1v#20ivpcell#20gpdk090	L=1e-07	W=4.2e-07
+ AD=6.72e-14	AS=1.176e-13	PD=7.4e-07	PS=1.4e-06	M=2	simW=4.2e-07 fw=4.2e-07
MI330/I0/avD1_5	I330/avC10#6	CLK#29	I330/I0/avC8	gnd!#1
+ nmos1v#20ivpcell#20gpdk090	L=1e-07	W=4.2e-07
+ AD=6.72e-14	AS=1.176e-13	PD=7.4e-07	PS=1.4e-06	M=2	simW=4.2e-07 fw=4.2e-07
MI340/I0/avD1_3	I340/I0/avC8#5	I340/I0/avC7	gnd!#117	gnd!#1
+ nmos1v#20ivpcell#20gpdk090	L=1e-07	W=4.2e-07
+ AD=6.72e-14	AS=1.176e-13	PD=7.4e-07	PS=1.4e-06	M=2	simW=4.2e-07 fw=4.2e-07
MI339/I0/avD1_3	I339/I0/avC8#5	I339/I0/avC7	gnd!#106	gnd!#1
+ nmos1v#20ivpcell#20gpdk090	L=1e-07	W=4.2e-07
+ AD=6.72e-14	AS=1.176e-13	PD=7.4e-07	PS=1.4e-06	M=2	simW=4.2e-07 fw=4.2e-07
MI341/I0/avD1_3	I341/I0/avC8#5	I341/I0/avC7	gnd!#128	gnd!#1
+ nmos1v#20ivpcell#20gpdk090	L=1e-07	W=4.2e-07
+ AD=6.72e-14	AS=1.176e-13	PD=7.4e-07	PS=1.4e-06	M=2	simW=4.2e-07 fw=4.2e-07
MI338/I0/avD1_5	I338/avC10#12	CLK#127	I338/I0/avC8	gnd!#1
+ nmos1v#20ivpcell#20gpdk090	L=1e-07	W=4.2e-07
+ AD=6.72e-14	AS=1.176e-13	PD=7.4e-07	PS=1.4e-06	M=2	simW=4.2e-07 fw=4.2e-07
MI334/avD7_1	I334/avC7#12	9_B0#20	vdd!#73	vdd!#88
+ pmos1v#20ivpcell#20gpdk090	L=1e-07	W=2.4e-07
+ AD=6.72e-14	AS=6.72e-14	PD=1.04e-06	PS=1.04e-06	simW=2.4e-07 fw=2.4e-07
MI334/avD7_2	I334/avC6#4	avC18#4	vdd!#82	vdd!#88
+ pmos1v#20ivpcell#20gpdk090	L=1e-07	W=9e-07
+ AD=1.44e-13	AS=2.52e-13	PD=1.22e-06	PS=2.36e-06	simW=9e-07 fw=9e-07
MI334/avD7_3	avC17#14	I334/avC7#18	I334/avC6#4	vdd!#88
+ pmos1v#20ivpcell#20gpdk090	L=1e-07	W=9e-07
+ AD=2.52e-13	AS=1.44e-13	PD=2.36e-06	PS=1.22e-06	simW=9e-07 fw=9e-07
MI334/avD7_4	avC17#8	I334/avC6#2	I334/avC7#3	vdd!#88
+ pmos1v#20ivpcell#20gpdk090	L=1e-07	W=2.4e-07
+ AD=6.72e-14	AS=6.72e-14	PD=1.04e-06	PS=1.04e-06	simW=2.4e-07 fw=2.4e-07
MI10/avD7_1	9_B0#11	avC7	vdd!#215	vdd!#88
+ pmos1v#20ivpcell#20gpdk090	L=1e-07	W=6e-07
+ AD=1.68e-13	AS=1.68e-13	PD=1.76e-06	PS=1.76e-06	simW=6e-07 fw=6e-07
MI4/avD7_1	avC7#7	avC6#10	vdd!#221	vdd!#88
+ pmos1v#20ivpcell#20gpdk090	L=1e-07	W=2.4e-07
+ AD=6.72e-14	AS=6.72e-14	PD=1.04e-06	PS=1.04e-06	simW=2.4e-07 fw=2.4e-07
MI337/I1/avD7_1	avC15#11	avC9#76	I337/avC10#9	vdd!#88
+ pmos1v#20ivpcell#20gpdk090	L=1e-07	W=6e-07
+ AD=9.6e-14	AS=1.68e-13	PD=9.2e-07	PS=1.76e-06	simW=6e-07 fw=6e-07
MI337/I1/avD7_2	vdd!#113	Set#64	avC15#11	vdd!#88
+ pmos1v#20ivpcell#20gpdk090	L=1e-07	W=6e-07
+ AD=1.68e-13	AS=9.6e-14	PD=1.76e-06	PS=9.2e-07	simW=6e-07 fw=6e-07
MI337/I0/avD7_1	I337/I0/avC11	avC17#3	vdd!#94	vdd!#88
+ pmos1v#20ivpcell#20gpdk090	L=1e-07	W=4.8e-07
+ AD=2.88e-14	AS=1.344e-13	PD=6e-07	PS=1.52e-06	simW=4.8e-07 fw=4.8e-07
MI337/I0/avD7_2	I337/I0/avC7#6	CLK#161	I337/I0/avC11	vdd!#88
+ pmos1v#20ivpcell#20gpdk090	L=1e-07	W=4.8e-07
+ AD=1.344e-13	AS=2.88e-14	PD=1.52e-06	PS=6e-07	simW=4.8e-07 fw=4.8e-07
MI338/I1/avD7_1	avC14#11	avC9#58	I338/avC10#9	vdd!#88
+ pmos1v#20ivpcell#20gpdk090	L=1e-07	W=6e-07
+ AD=9.6e-14	AS=1.68e-13	PD=9.2e-07	PS=1.76e-06	simW=6e-07 fw=6e-07
MI338/I1/avD7_2	vdd!#148	Set#48	avC14#11	vdd!#88
+ pmos1v#20ivpcell#20gpdk090	L=1e-07	W=6e-07
+ AD=1.68e-13	AS=9.6e-14	PD=1.76e-06	PS=9.2e-07	simW=6e-07 fw=6e-07
MI338/I0/avD7_1	I338/I0/avC11	avC15#3	vdd!#120	vdd!#88
+ pmos1v#20ivpcell#20gpdk090	L=1e-07	W=4.8e-07
+ AD=2.88e-14	AS=1.344e-13	PD=6e-07	PS=1.52e-06	simW=4.8e-07 fw=4.8e-07
MI338/I0/avD7_2	I338/I0/avC7#6	CLK#130	I338/I0/avC11	vdd!#88
+ pmos1v#20ivpcell#20gpdk090	L=1e-07	W=4.8e-07
+ AD=1.344e-13	AS=2.88e-14	PD=1.52e-06	PS=6e-07	simW=4.8e-07 fw=4.8e-07
MI339/I1/avD7_1	avC12#11	avC9#39	I339/avC10#9	vdd!#88
+ pmos1v#20ivpcell#20gpdk090	L=1e-07	W=6e-07
+ AD=9.6e-14	AS=1.68e-13	PD=9.2e-07	PS=1.76e-06	simW=6e-07 fw=6e-07
MI339/I1/avD7_2	vdd!#173	Set#32	avC12#11	vdd!#88
+ pmos1v#20ivpcell#20gpdk090	L=1e-07	W=6e-07
+ AD=1.68e-13	AS=9.6e-14	PD=1.76e-06	PS=9.2e-07	simW=6e-07 fw=6e-07
MI339/I0/avD7_1	I339/I0/avC11	avC14#3	vdd!#154	vdd!#88
+ pmos1v#20ivpcell#20gpdk090	L=1e-07	W=4.8e-07
+ AD=2.88e-14	AS=1.344e-13	PD=6e-07	PS=1.52e-06	simW=4.8e-07 fw=4.8e-07
MI339/I0/avD7_2	I339/I0/avC7#6	CLK#79	I339/I0/avC11	vdd!#88
+ pmos1v#20ivpcell#20gpdk090	L=1e-07	W=4.8e-07
+ AD=1.344e-13	AS=2.88e-14	PD=1.52e-06	PS=6e-07	simW=4.8e-07 fw=4.8e-07
MI340/I1/avD7_1	avC10#11	avC9#20	I340/avC10#9	vdd!#88
+ pmos1v#20ivpcell#20gpdk090	L=1e-07	W=6e-07
+ AD=9.6e-14	AS=1.68e-13	PD=9.2e-07	PS=1.76e-06	simW=6e-07 fw=6e-07
MI340/I1/avD7_2	vdd!#199	Set#16	avC10#11	vdd!#88
+ pmos1v#20ivpcell#20gpdk090	L=1e-07	W=6e-07
+ AD=1.68e-13	AS=9.6e-14	PD=1.76e-06	PS=9.2e-07	simW=6e-07 fw=6e-07
MI340/I0/avD7_1	I340/I0/avC11	avC12#3	vdd!#179	vdd!#88
+ pmos1v#20ivpcell#20gpdk090	L=1e-07	W=4.8e-07
+ AD=2.88e-14	AS=1.344e-13	PD=6e-07	PS=1.52e-06	simW=4.8e-07 fw=4.8e-07
MI340/I0/avD7_2	I340/I0/avC7#6	CLK#46	I340/I0/avC11	vdd!#88
+ pmos1v#20ivpcell#20gpdk090	L=1e-07	W=4.8e-07
+ AD=1.344e-13	AS=2.88e-14	PD=1.52e-06	PS=6e-07	simW=4.8e-07 fw=4.8e-07
MI341/I1/avD7_1	avC6#5	avC9#7	I341/avC10#9	vdd!#88
+ pmos1v#20ivpcell#20gpdk090	L=1e-07	W=6e-07
+ AD=9.6e-14	AS=1.68e-13	PD=9.2e-07	PS=1.76e-06	simW=6e-07 fw=6e-07
MI341/I1/avD7_2	vdd!#225	Set#8	avC6#5	vdd!#88
+ pmos1v#20ivpcell#20gpdk090	L=1e-07	W=6e-07
+ AD=1.68e-13	AS=9.6e-14	PD=1.76e-06	PS=9.2e-07	simW=6e-07 fw=6e-07
MI341/I0/avD7_1	I341/I0/avC11	avC10#3	vdd!#205	vdd!#88
+ pmos1v#20ivpcell#20gpdk090	L=1e-07	W=4.8e-07
+ AD=2.88e-14	AS=1.344e-13	PD=6e-07	PS=1.52e-06	simW=4.8e-07 fw=4.8e-07
MI341/I0/avD7_2	I341/I0/avC7#6	CLK#21	I341/I0/avC11	vdd!#88
+ pmos1v#20ivpcell#20gpdk090	L=1e-07	W=4.8e-07
+ AD=1.344e-13	AS=2.88e-14	PD=1.52e-06	PS=6e-07	simW=4.8e-07 fw=4.8e-07
MI336/I1/avD7_1	avC18#6	avC9#93	I336/avC10#12	vdd!#88
+ pmos1v#20ivpcell#20gpdk090	L=1e-07	W=6e-07
+ AD=9.6e-14	AS=1.68e-13	PD=9.2e-07	PS=1.76e-06	simW=6e-07 fw=6e-07
MI336/I1/avD7_2	vdd!#77	Set#76	avC18#6	vdd!#88
+ pmos1v#20ivpcell#20gpdk090	L=1e-07	W=6e-07
+ AD=1.68e-13	AS=9.6e-14	PD=1.76e-06	PS=9.2e-07	simW=6e-07 fw=6e-07
MI336/I0/avD7_1	I336/I0/avC11	avC16	vdd!#90	vdd!#88
+ pmos1v#20ivpcell#20gpdk090	L=1e-07	W=4.8e-07
+ AD=2.88e-14	AS=1.344e-13	PD=6e-07	PS=1.52e-06	simW=4.8e-07 fw=4.8e-07
MI336/I0/avD7_2	I336/I0/avC7#4	CLK#177	I336/I0/avC11	vdd!#88
+ pmos1v#20ivpcell#20gpdk090	L=1e-07	W=4.8e-07
+ AD=1.344e-13	AS=2.88e-14	PD=1.52e-06	PS=6e-07	simW=4.8e-07 fw=4.8e-07
MI335/I1/avD7_1	avC16#5	avC9#82	I335/avC10#11	vdd!#88
+ pmos1v#20ivpcell#20gpdk090	L=1e-07	W=6e-07
+ AD=9.6e-14	AS=1.68e-13	PD=9.2e-07	PS=1.76e-06	simW=6e-07 fw=6e-07
MI335/I1/avD7_2	vdd!#98	Set#68	avC16#5	vdd!#88
+ pmos1v#20ivpcell#20gpdk090	L=1e-07	W=6e-07
+ AD=1.68e-13	AS=9.6e-14	PD=1.76e-06	PS=9.2e-07	simW=6e-07 fw=6e-07
MI335/I0/avD7_1	I335/I0/avC11	avC13#11	vdd!#116	vdd!#88
+ pmos1v#20ivpcell#20gpdk090	L=1e-07	W=4.8e-07
+ AD=2.88e-14	AS=1.344e-13	PD=6e-07	PS=1.52e-06	simW=4.8e-07 fw=4.8e-07
MI335/I0/avD7_2	I335/I0/avC7#4	CLK#147	I335/I0/avC11	vdd!#88
+ pmos1v#20ivpcell#20gpdk090	L=1e-07	W=4.8e-07
+ AD=1.344e-13	AS=2.88e-14	PD=1.52e-06	PS=6e-07	simW=4.8e-07 fw=4.8e-07
MI331/I1/avD7_1	avC13	avC9#46	I331/avC10#11	vdd!#88
+ pmos1v#20ivpcell#20gpdk090	L=1e-07	W=6e-07
+ AD=9.6e-14	AS=1.68e-13	PD=9.2e-07	PS=1.76e-06	simW=6e-07 fw=6e-07
MI331/I1/avD7_2	vdd!#164	Set#38	avC13	vdd!#88
+ pmos1v#20ivpcell#20gpdk090	L=1e-07	W=6e-07
+ AD=1.68e-13	AS=9.6e-14	PD=1.76e-06	PS=9.2e-07	simW=6e-07 fw=6e-07
MI331/I0/avD7_1	I331/I0/avC11	avC11	vdd!#183	vdd!#88
+ pmos1v#20ivpcell#20gpdk090	L=1e-07	W=4.8e-07
+ AD=2.88e-14	AS=1.344e-13	PD=6e-07	PS=1.52e-06	simW=4.8e-07 fw=4.8e-07
MI331/I0/avD7_2	I331/I0/avC7#4	CLK#44	I331/I0/avC11	vdd!#88
+ pmos1v#20ivpcell#20gpdk090	L=1e-07	W=4.8e-07
+ AD=1.344e-13	AS=2.88e-14	PD=1.52e-06	PS=6e-07	simW=4.8e-07 fw=4.8e-07
MI330/I1/avD7_1	avC11#5	avC9#25	I330/avC10#11	vdd!#88
+ pmos1v#20ivpcell#20gpdk090	L=1e-07	W=6e-07
+ AD=9.6e-14	AS=1.68e-13	PD=9.2e-07	PS=1.76e-06	simW=6e-07 fw=6e-07
MI330/I1/avD7_2	vdd!#190	Set#20	avC11#5	vdd!#88
+ pmos1v#20ivpcell#20gpdk090	L=1e-07	W=6e-07
+ AD=1.68e-13	AS=9.6e-14	PD=1.76e-06	PS=9.2e-07	simW=6e-07 fw=6e-07
MI330/I0/avD7_1	I330/I0/avC11	9_B0#3	vdd!#209	vdd!#88
+ pmos1v#20ivpcell#20gpdk090	L=1e-07	W=4.8e-07
+ AD=2.88e-14	AS=1.344e-13	PD=6e-07	PS=1.52e-06	simW=4.8e-07 fw=4.8e-07
MI330/I0/avD7_2	I330/I0/avC7#4	CLK#13	I330/I0/avC11	vdd!#88
+ pmos1v#20ivpcell#20gpdk090	L=1e-07	W=4.8e-07
+ AD=1.344e-13	AS=2.88e-14	PD=1.52e-06	PS=6e-07	simW=4.8e-07 fw=4.8e-07
MI340/I0/avD7_5	I340/avC10#18	avC8#31	I340/I0/avC9	vdd!#88
+ pmos1v#20ivpcell#20gpdk090	L=1e-07	W=8.4e-07
+ AD=1.344e-13	AS=2.352e-13	PD=1.16e-06	PS=2.24e-06	M=2	simW=8.4e-07 fw=8.4e-07
MI330/I0/avD7_5	I330/avC10#3	avC8#26	I330/I0/avC9#6	vdd!#88
+ pmos1v#20ivpcell#20gpdk090	L=1e-07	W=8.4e-07
+ AD=1.344e-13	AS=2.352e-13	PD=1.16e-06	PS=2.24e-06	M=2	simW=8.4e-07 fw=8.4e-07
MI341/I0/avD7_3	I341/I0/avC9#12	I341/I0/avC7	vdd!	vdd!#88
+ pmos1v#20ivpcell#20gpdk090	L=1e-07	W=8.4e-07
+ AD=1.344e-13	AS=2.352e-13	PD=1.16e-06	PS=2.24e-06	M=2	simW=8.4e-07 fw=8.4e-07
MI330/I0/avD7_3	I330/I0/avC9#2	I330/I0/avC7	vdd!	vdd!#88
+ pmos1v#20ivpcell#20gpdk090	L=1e-07	W=8.4e-07
+ AD=1.344e-13	AS=2.352e-13	PD=1.16e-06	PS=2.24e-06	M=2	simW=8.4e-07 fw=8.4e-07
MI340/I0/avD7_3	I340/I0/avC9#12	I340/I0/avC7	vdd!	vdd!#88
+ pmos1v#20ivpcell#20gpdk090	L=1e-07	W=8.4e-07
+ AD=1.344e-13	AS=2.352e-13	PD=1.16e-06	PS=2.24e-06	M=2	simW=8.4e-07 fw=8.4e-07
MI331/I0/avD7_3	I331/I0/avC9#2	I331/I0/avC7	vdd!	vdd!#88
+ pmos1v#20ivpcell#20gpdk090	L=1e-07	W=8.4e-07
+ AD=1.344e-13	AS=2.352e-13	PD=1.16e-06	PS=2.24e-06	M=2	simW=8.4e-07 fw=8.4e-07
MI339/I0/avD7_3	I339/I0/avC9#12	I339/I0/avC7	vdd!	vdd!#88
+ pmos1v#20ivpcell#20gpdk090	L=1e-07	W=8.4e-07
+ AD=1.344e-13	AS=2.352e-13	PD=1.16e-06	PS=2.24e-06	M=2	simW=8.4e-07 fw=8.4e-07
MI17/avD7_1	avC8#66	CLK#87	vdd!	vdd!#88
+ pmos1v#20ivpcell#20gpdk090	L=1e-07	W=9.1e-07
+ AD=1.55527e-13	AS=1.55527e-13	PD=1.33455e-06	PS=1.33455e-06	M=11	simW=9.1e-07 fw=9.1e-07
MI13/avD7_1	avC9#60	Set#52	vdd!	vdd!#88
+ pmos1v#20ivpcell#20gpdk090	L=1e-07	W=4.8e-07
+ AD=7.68e-14	AS=1.344e-13	PD=8e-07	PS=1.52e-06	M=2	simW=4.8e-07 fw=4.8e-07
MI338/I0/avD7_3	I338/I0/avC9#12	I338/I0/avC7	vdd!	vdd!#88
+ pmos1v#20ivpcell#20gpdk090	L=1e-07	W=8.4e-07
+ AD=1.344e-13	AS=2.352e-13	PD=1.16e-06	PS=2.24e-06	M=2	simW=8.4e-07 fw=8.4e-07
MI335/I0/avD7_3	I335/I0/avC9#2	I335/I0/avC7	vdd!	vdd!#88
+ pmos1v#20ivpcell#20gpdk090	L=1e-07	W=8.4e-07
+ AD=1.344e-13	AS=2.352e-13	PD=1.16e-06	PS=2.24e-06	M=2	simW=8.4e-07 fw=8.4e-07
MI337/I0/avD7_3	I337/I0/avC9#12	I337/I0/avC7	vdd!	vdd!#88
+ pmos1v#20ivpcell#20gpdk090	L=1e-07	W=8.4e-07
+ AD=1.344e-13	AS=2.352e-13	PD=1.16e-06	PS=2.24e-06	M=2	simW=8.4e-07 fw=8.4e-07
MI335/I0/avD7_5	I335/avC10#3	avC8#153	I335/I0/avC9#6	vdd!#88
+ pmos1v#20ivpcell#20gpdk090	L=1e-07	W=8.4e-07
+ AD=1.344e-13	AS=2.352e-13	PD=1.16e-06	PS=2.24e-06	M=2	simW=8.4e-07 fw=8.4e-07
MI336/I0/avD7_3	I336/I0/avC9#2	I336/I0/avC7	vdd!	vdd!#88
+ pmos1v#20ivpcell#20gpdk090	L=1e-07	W=8.4e-07
+ AD=1.344e-13	AS=2.352e-13	PD=1.16e-06	PS=2.24e-06	M=2	simW=8.4e-07 fw=8.4e-07
MI341/I0/avD7_5	I341/avC10#18	avC8#3	I341/I0/avC9	vdd!#88
+ pmos1v#20ivpcell#20gpdk090	L=1e-07	W=8.4e-07
+ AD=1.344e-13	AS=2.352e-13	PD=1.16e-06	PS=2.24e-06	M=2	simW=8.4e-07 fw=8.4e-07
MI339/I0/avD7_5	I339/avC10#18	avC8#61	I339/I0/avC9	vdd!#88
+ pmos1v#20ivpcell#20gpdk090	L=1e-07	W=8.4e-07
+ AD=1.344e-13	AS=2.352e-13	PD=1.16e-06	PS=2.24e-06	M=2	simW=8.4e-07 fw=8.4e-07
MI336/I0/avD7_5	I336/avC10#3	avC8#184	I336/I0/avC9#5	vdd!#88
+ pmos1v#20ivpcell#20gpdk090	L=1e-07	W=8.4e-07
+ AD=1.344e-13	AS=2.352e-13	PD=1.16e-06	PS=2.24e-06	M=2	simW=8.4e-07 fw=8.4e-07
MI331/I0/avD7_5	I331/avC10#3	avC8#56	I331/I0/avC9#6	vdd!#88
+ pmos1v#20ivpcell#20gpdk090	L=1e-07	W=8.4e-07
+ AD=1.344e-13	AS=2.352e-13	PD=1.16e-06	PS=2.24e-06	M=2	simW=8.4e-07 fw=8.4e-07
MI337/I0/avD7_5	I337/avC10#18	avC8#157	I337/I0/avC9	vdd!#88
+ pmos1v#20ivpcell#20gpdk090	L=1e-07	W=8.4e-07
+ AD=1.344e-13	AS=2.352e-13	PD=1.16e-06	PS=2.24e-06	M=2	simW=8.4e-07 fw=8.4e-07
MI338/I0/avD7_5	I338/avC10#18	avC8#128	I338/I0/avC9	vdd!#88
+ pmos1v#20ivpcell#20gpdk090	L=1e-07	W=8.4e-07
+ AD=1.344e-13	AS=2.352e-13	PD=1.16e-06	PS=2.24e-06	M=2	simW=8.4e-07 fw=8.4e-07
*
*
*       RESISTOR AND CAP/DIODE CARDS
*
Re2	avC8#34	avC8#22	    2.6243	$mt5
+ $X=0.49 $Y=2.485
Re3	avC8#23	avC8#35	    2.1593	$mt5
+ $X=-0.235 $Y=4.5375
Re4	avC8#52	avC8#64	    2.1593	$mt5
+ $X=5.165 $Y=4.5375
Re5	avC8#65	avC8#53	    2.6243	$mt5
+ $X=6.115 $Y=2.485
Re6	avC8#88	avC8#131	    2.1593	$mt5
+ $X=10.665 $Y=4.5375
Re7	avC8#140	avC8#141	    2.1593	$mt5
+ $X=16.105 $Y=4.5375
Re8	avC8#161	avC8#150	    2.6243	$mt5
+ $X=18.155 $Y=2.485
Re9	avC8#170	avC8#171	    2.1593	$mt5
+ $X=21.645 $Y=4.5375
Re10	avC8#183	avC8#182	    1.2243	$mt5
+ $X=23.775 $Y=2.485
Re1	avC9#10	avC9#9	    1.6819	$mt5	$X=-2.81 $Y=4.565
Rf29	9_B0#16	9_B0#14	   11.5294	$mt4
+ $X=12.205 $Y=1.905
Rf7	avC13#18	avC13#10	    3.2164	$mt4
+ $X=13.1525 $Y=3.17
Rf11	CLK#179	CLK#170	    2.1044	$mt4
+ $X=22.785 $Y=2.7
Rf12	CLK#170	CLK#160	    1.9322	$mt4
+ $X=19.6925 $Y=2.7
Rf13	CLK#160	CLK#139	    0.4279	$mt4
+ $X=16.9225 $Y=2.7
Rf14	CLK#139	CLK#82	    2.3245	$mt4	$X=13.695 $Y=2.7
Rf15	CLK#82	CLK#70	    0.2545	$mt4	$X=10.67 $Y=2.7
Rf16	CLK#70	CLK#60	    1.8829	$mt4	$X=8.16 $Y=2.7
Rf17	CLK#60	CLK#55	    0.1986	$mt4	$X=5.715 $Y=2.7
Rf18	CLK#55	CLK#27	    3.6516	$mt4	$X=2.8725 $Y=2.7
Rf39	Set#80	Set#72	    2.2922	$mt4	$X=24.8625 $Y=2.285
Rf40	Set#72	Set#59	    1.8379	$mt4	$X=20.0275 $Y=2.285
Rf41	Set#59	Set#51	    1.1308	$mt4	$X=16.5475 $Y=2.285
Rf42	Set#51	Set#43	    1.2294	$mt4	$X=13.7775 $Y=2.285
Rf43	Set#43	Set#40	    1.0001	$mt4	$X=11.12 $Y=2.285
Rf44	Set#40	Set#27	    1.2958	$mt4	$X=8.455 $Y=2.285
Rf45	Set#27	Set#24	    1.0129	$mt4	$X=5.705 $Y=2.285
Rf46	Set#24	Set#11	    1.3301	$mt4	$X=2.955 $Y=2.285
Rf47	Set#11	Set#3	    2.3072	$mt4	$X=-1.305 $Y=2.285
Rf2	avC8#19	avC8#22	    0.4667	$mt4
+ $X=0.07 $Y=1.245
Rf3	avC8#21	avC8#23	    0.4667	$mt4
+ $X=0.185 $Y=5.235
Rf4	avC8#49	avC8#52	    0.4667	$mt4
+ $X=5.585 $Y=5.235
Rf5	avC8#51	avC8#53	    0.4667	$mt4
+ $X=5.695 $Y=1.245
Rf6	avC8#87	avC8#88	    0.4667	$mt4
+ $X=11.085 $Y=5.235
Rf8	avC8#139	avC8#140	    0.4667	$mt4
+ $X=16.525 $Y=5.235
Rf9	avC8#149	avC8#150	    0.4667	$mt4
+ $X=17.735 $Y=1.245
Rf10	avC8#169	avC8#170	    0.4667	$mt4
+ $X=22.065 $Y=5.235
Rf19	avC8#181	avC8#182	    0.4667	$mt4
+ $X=23.355 $Y=1.245
Rf20	avC8#183	avC8#171	    2.3060	$mt4
+ $X=22.71 $Y=3.78
Rf21	avC8#171	avC8#161	    1.4888	$mt4	$X=19.9 $Y=3.78
Rf22	avC8#161	avC8#141	    0.8717	$mt4
+ $X=17.13 $Y=3.78
Rf23	avC8#125	avC8#141	    0.6038	$mt4
+ $X=15.3925 $Y=3.78
Rf24	avC8#125	avC8#131	    1.7138	$mt4
+ $X=12.6725 $Y=3.78
Rf25	avC8#131	avC8#65	    1.9431	$mt4	$X=8.39 $Y=3.78
Rf26	avC8#65	avC8#64	    0.4002	$mt4	$X=5.64 $Y=3.78
Rf27	avC8#64	avC8#34	    1.9967	$mt4
+ $X=2.8275 $Y=3.78
Rf28	avC8#34	avC8#35	    0.3038	$mt4
+ $X=0.1275 $Y=3.78
Rf1	avC9#5	avC9#9	    1.4000	$mt4	$X=-2.9 $Y=4.915
Rf30	avC9#73	avC9#70	    1.3067	$mt4
+ $X=17.2625 $Y=4.195
Rf31	avC9#70	avC9#51	    1.0538	$mt4
+ $X=14.4925 $Y=4.195
Rf32	avC9#51	avC9#45	    1.9560	$mt4
+ $X=10.965 $Y=4.195
Rf33	avC9#45	avC9#32	    0.3617	$mt4
+ $X=8.245 $Y=4.195
Rf34	avC9#32	avC9#24	    1.8852	$mt4
+ $X=5.6075 $Y=4.195
Rf35	avC9#24	avC9#13	    0.4581	$mt4
+ $X=2.8575 $Y=4.195
Rf36	avC9#13	avC9#10	    2.1897	$mt4
+ $X=-0.2475 $Y=4.195
Rf37	avC9#89	avC9#73	    0.9660	$mt4
+ $X=19.93 $Y=4.195
Rf38	avC9#97	avC9#89	    2.4015	$mt4
+ $X=23.875 $Y=4.195
Rg7	9_B0#2	9_B0#14	    1.4000	$mt3	$X=-1.015 $Y=1.4
Rg81	9_B0#15	9_B0#16	    4.0744	$mt3
+ $X=25.505 $Y=3.405
Rg42	avC13#9	avC13#10	    1.4000	$mt3
+ $X=9.32 $Y=3.175
Rg58	avC13#17	avC13#18	    2.1353	$mt3
+ $X=16.85 $Y=2.27
Rg90	avC18#15	avC18#16	    2.4059	$mt3
+ $X=27.345 $Y=4.04
Rg4	avC6#16	avC6#9	    1.0009	$mt3	$X=-3.24 $Y=2.5475
Rg85	I334/avC7#7	I334/avC7#9	    1.9329	$mt3
+ $X=26.26 $Y=4.87
Rg2	vdd!#3	vdd!#2	    1.8295	$mt3	$X=-3.66 $Y=4.885
Rg5	vdd!#7	vdd!#8	    0.1520	$mt3	$X=-2.82 $Y=5.5005
Rg11	vdd!#11	vdd!#10	    1.8295	$mt3
+ $X=1.74 $Y=4.885
Rg14	vdd!#15	vdd!#16	    0.1520	$mt3
+ $X=2.58 $Y=5.5005
Rg21	vdd!#21	vdd!#20	    1.5520	$mt3
+ $X=3.075 $Y=0.9805
Rg24	vdd!#22	vdd!#24	    0.4295	$mt3
+ $X=3.915 $Y=1.595
Rg32	vdd!#27	vdd!#26	    1.8295	$mt3
+ $X=7.24 $Y=4.885
Rg35	vdd!#31	vdd!#32	    0.1520	$mt3
+ $X=8.08 $Y=5.5005
Rg40	vdd!#37	vdd!#36	    1.5520	$mt3
+ $X=8.7 $Y=0.9805
Rg43	vdd!#38	vdd!#40	    0.4295	$mt3
+ $X=9.54 $Y=1.595
Rg51	vdd!#43	vdd!#41	    1.8295	$mt3
+ $X=12.68 $Y=4.885
Rg54	vdd!#47	vdd!#48	    0.1520	$mt3
+ $X=13.52 $Y=5.5005
Rg65	vdd!#51	vdd!#50	    1.8295	$mt3
+ $X=18.22 $Y=4.885
Rg68	vdd!#55	vdd!#56	    0.1520	$mt3
+ $X=19.06 $Y=5.5005
Rg71	vdd!#61	vdd!#60	    1.5520	$mt3
+ $X=20.74 $Y=0.9805
Rg74	vdd!#62	vdd!#63	    2.5295	$mt3
+ $X=21.58 $Y=1.595
Rg86	vdd!#67	vdd!#66	    1.5520	$mt3
+ $X=26.36 $Y=0.9805
Rg89	vdd!#70	vdd!#72	    0.4295	$mt3
+ $X=27.2 $Y=1.595
Rg15	CLK#26	CLK#25	    0.8779	$mt3	$X=1.428 $Y=1.555
Rg16	CLK#26	CLK#27	    0.4654	$mt3	$X=0.33 $Y=2.1275
Rg17	CLK#26	CLK#14	    0.2319	$mt3	$X=0.04 $Y=1.555
Rg18	CLK#28	CLK#27	    0.9283	$mt3	$X=0.075 $Y=3.8125
Rg19	CLK#28	CLK#3	    0.9379	$mt3	$X=-1.0975 $Y=4.925
Rg20	CLK#28	CLK#22	    0.1719	$mt3	$X=0.29 $Y=4.925
Rg26	CLK#54	CLK#53	    0.1719	$mt3	$X=5.6905 $Y=4.925
Rg27	CLK#54	CLK#34	    0.9379	$mt3	$X=4.3025 $Y=4.925
Rg28	CLK#54	CLK#55	    2.3247	$mt3	$X=5.475 $Y=3.84
Rg36	CLK#59	CLK#58	    0.8779	$mt3	$X=7.053 $Y=1.555
Rg37	CLK#59	CLK#45	    0.2319	$mt3	$X=5.665 $Y=1.555
Rg38	CLK#59	CLK#60	    1.8619	$mt3	$X=5.955 $Y=2.1
Rg45	CLK#70	CLK#71	    3.1795	$mt3	$X=10.3625 $Y=2.1255
Rg46	CLK#81	CLK#80	    0.1719	$mt3	$X=11.1905 $Y=4.925
Rg47	CLK#81	CLK#66	    0.9379	$mt3	$X=9.8025 $Y=4.925
Rg48	CLK#81	CLK#82	    2.3226	$mt3	$X=10.975 $Y=3.8425
Rg59	CLK#138	CLK#137	    0.1719	$mt3
+ $X=16.6305 $Y=4.925
Rg60	CLK#138	CLK#86	    0.9379	$mt3	$X=15.2425 $Y=4.925
Rg61	CLK#138	CLK#139	    2.3247	$mt3
+ $X=16.415 $Y=3.84
Rg69	CLK#153	CLK#146	    1.1140	$mt3
+ $X=18.8105 $Y=1.555
Rg70	CLK#160	CLK#146	    1.8723	$mt3	$X=17.43 $Y=2.1
Rg76	CLK#169	CLK#168	    0.1719	$mt3
+ $X=22.1705 $Y=4.925
Rg77	CLK#169	CLK#149	    0.9379	$mt3
+ $X=20.7825 $Y=4.925
Rg78	CLK#169	CLK#170	    2.3247	$mt3
+ $X=21.955 $Y=3.84
Rg82	CLK#186	CLK#185	    0.8779	$mt3
+ $X=24.713 $Y=1.555
Rg83	CLK#186	CLK#178	    0.2319	$mt3
+ $X=23.325 $Y=1.555
Rg84	CLK#186	CLK#179	    0.4619	$mt3
+ $X=23.615 $Y=2.1
Rg1	Set#3	Set#1	    2.5561	$mt3	$X=-4.005 $Y=3.635
Rg10	Set#11	Set#10	    2.5561	$mt3	$X=1.395 $Y=3.635
Rg25	Set#24	Set#23	    1.7375	$mt3	$X=4.515 $Y=1.89
Rg31	Set#27	Set#26	    2.5561	$mt3	$X=6.895 $Y=3.635
Rg44	Set#40	Set#39	    1.4000	$mt3	$X=9.96 $Y=2.285
Rg50	Set#43	Set#42	    2.5561	$mt3	$X=12.335 $Y=3.635
Rg56	Set#51	Set#50	    1.7874	$mt3	$X=15.2225 $Y=1.8125
Rg63	Set#59	Set#57	    2.5561	$mt3	$X=17.875 $Y=3.635
Rg75	Set#72	Set#71	    1.7375	$mt3	$X=22.18 $Y=1.89
Rg91	Set#80	Set#79	    1.7375	$mt3	$X=27.545 $Y=1.89
Rg8	avC8#19	avC8#20	    0.9333	$mt3
+ $X=0.07 $Y=1.245
Rg9	avC8#21	avC8#17	    0.9333	$mt3
+ $X=0.185 $Y=5.235
Rg29	avC8#49	avC8#48	    0.9333	$mt3
+ $X=5.585 $Y=5.235
Rg30	avC8#51	avC8#50	    0.9333	$mt3
+ $X=5.695 $Y=1.245
Rg49	avC8#87	avC8#86	    0.9333	$mt3
+ $X=11.085 $Y=5.235
Rg55	avC8#125	avC8#119	    2.6407	$mt3
+ $X=14.68 $Y=2.958
Rg62	avC8#139	avC8#138	    0.9333	$mt3
+ $X=16.525 $Y=5.235
Rg64	avC8#149	avC8#148	    0.9333	$mt3
+ $X=17.735 $Y=1.245
Rg79	avC8#169	avC8#168	    0.9333	$mt3
+ $X=22.065 $Y=5.235
Rg80	avC8#181	avC8#178	    0.9333	$mt3
+ $X=23.355 $Y=1.245
Rg6	avC9#5	avC9#4	    1.4000	$mt3	$X=-2.9 $Y=4.915
Rg13	avC9#13	avC9#12	    1.5831	$mt3
+ $X=2.255 $Y=3.9825
Rg22	avC9#24	avC9#23	    2.0079	$mt3
+ $X=3.4 $Y=3.4775
Rg34	avC9#32	avC9#30	    1.5831	$mt3
+ $X=7.755 $Y=3.9825
Rg39	avC9#45	avC9#44	    1.8531	$mt3
+ $X=8.675 $Y=3.705
Rg53	avC9#51	avC9#50	    1.5831	$mt3
+ $X=13.195 $Y=3.9825
Rg57	avC9#70	avC9#66	    4.1709	$mt3
+ $X=15.735 $Y=3.1775
Rg67	avC9#73	avC9#71	    1.5831	$mt3
+ $X=18.735 $Y=3.9825
Rg72	avC9#89	avC9#88	    2.0079	$mt3
+ $X=21.065 $Y=3.4775
Rg87	avC9#97	avC9#96	    1.5580	$mt3
+ $X=26.685 $Y=3.998
Rg66	I337/avC10#5	I337/avC10#6	    1.9117	$mt3
+ $X=18.52 $Y=5.165
Rg52	I338/avC10#5	I338/avC10#6	    1.9117	$mt3
+ $X=12.98 $Y=5.165
Rg33	I339/avC10#5	I339/avC10#6	    1.9117	$mt3
+ $X=7.54 $Y=5.165
Rg12	I340/avC10#5	I340/avC10#6	    1.9117	$mt3
+ $X=2.04 $Y=5.165
Rg3	I341/avC10#6	I341/avC10#5	    3.3117	$mt3
+ $X=-3.36 $Y=5.165
Rg88	I336/avC10#14	I336/avC10#15	    1.9117	$mt3
+ $X=26.9 $Y=1.315
Rg73	I335/avC10#14	I335/avC10#15	    1.9117	$mt3
+ $X=21.28 $Y=1.315
Rg41	I331/avC10#14	I331/avC10#15	    1.9117	$mt3
+ $X=9.24 $Y=1.315
Rg23	I330/avC10#14	I330/avC10#15	    1.9117	$mt3
+ $X=3.615 $Y=1.315
Rh14	9_B0#1	9_B0#2	    2.8000	$mt2	$X=-1.015 $Y=1.4
Rh165	9_B0#17	9_B0#15	    1.9933	$mt2
+ $X=26.255 $Y=4.87
Rh70	avC13#9	avC13#8	    1.5855	$mt2
+ $X=9.135 $Y=3.0205
Rh114	avC13#17	avC13#16	    1.4000	$mt2
+ $X=16.795 $Y=1.4
Rh168	avC18#14	avC18#15	    2.8000	$mt2
+ $X=27.29 $Y=5.24
Rh169	avC18#13	avC18#16	    0.2167	$mt2
+ $X=27.0425 $Y=2.85
Rh4	avC6#9	avC6#8	    1.4000	$mt2	$X=-3.24 $Y=3.82
Rh5	avC6#14	avC6#16	    2.8000	$mt2
+ $X=-3.165 $Y=1.4
Rh152	avC17#17	avC17#9	    1.5863	$mt2
+ $X=25.033 $Y=4.36
Rh153	avC17#9	avC17#7	    1.5788	$mt2
+ $X=24.303 $Y=4.36
Rh156	avC17#18	avC17#10	    1.7650	$mt2
+ $X=25.1255 $Y=5.5
Rh158	I334/avC7#7	I334/avC7#8	    2.8000	$mt2	$X=26.26 $Y=5.5
Rh162	I334/avC7#15	I334/avC7#9	    1.6072	$mt2
+ $X=26.51 $Y=4.24
Rh2	vdd!#1	vdd!#2	    1.4000	$mt2	$X=-3.66 $Y=4.285
Rh7	vdd!#5	vdd!#7	    2.8000	$mt2	$X=-2.82 $Y=5.69
Rh8	vdd!#8	vdd!#3	    1.7531	$mt2	$X=-3.24 $Y=5.315
Rh24	vdd!#9	vdd!#10	    1.4000	$mt2	$X=1.74 $Y=4.285
Rh29	vdd!#13	vdd!#15	    2.8000	$mt2	$X=2.58 $Y=5.69
Rh30	vdd!#16	vdd!#11	    1.7531	$mt2
+ $X=2.16 $Y=5.315
Rh35	vdd!#18	vdd!#20	    2.8000	$mt2
+ $X=3.075 $Y=0.79
Rh39	vdd!#23	vdd!#22	    1.4000	$mt2
+ $X=3.915 $Y=2.195
Rh41	vdd!#24	vdd!#21	    1.7531	$mt2
+ $X=3.495 $Y=1.165
Rh51	vdd!#25	vdd!#26	    1.4000	$mt2
+ $X=7.24 $Y=4.285
Rh57	vdd!#29	vdd!#31	    2.8000	$mt2	$X=8.08 $Y=5.69
Rh58	vdd!#32	vdd!#27	    1.7531	$mt2
+ $X=7.66 $Y=5.315
Rh66	vdd!#34	vdd!#36	    2.8000	$mt2	$X=8.7 $Y=0.79
Rh71	vdd!#39	vdd!#38	    1.4000	$mt2
+ $X=9.54 $Y=2.195
Rh73	vdd!#40	vdd!#37	    1.7531	$mt2
+ $X=9.12 $Y=1.165
Rh82	vdd!#42	vdd!#41	    1.4000	$mt2
+ $X=12.68 $Y=4.285
Rh85	vdd!#45	vdd!#47	    2.8000	$mt2
+ $X=13.52 $Y=5.69
Rh86	vdd!#48	vdd!#43	    1.7531	$mt2
+ $X=13.1 $Y=5.315
Rh120	vdd!#49	vdd!#50	    1.4000	$mt2
+ $X=18.22 $Y=4.285
Rh123	vdd!#53	vdd!#55	    2.8000	$mt2
+ $X=19.06 $Y=5.69
Rh124	vdd!#56	vdd!#51	    1.7531	$mt2
+ $X=18.64 $Y=5.315
Rh137	vdd!#58	vdd!#60	    2.8000	$mt2
+ $X=20.74 $Y=0.79
Rh141	vdd!#64	vdd!#62	    0.7000	$mt2
+ $X=21.58 $Y=2.195
Rh142	vdd!#63	vdd!#61	    0.3531	$mt2
+ $X=21.16 $Y=1.165
Rh160	vdd!#65	vdd!#66	    2.8000	$mt2
+ $X=26.36 $Y=0.79
Rh164	vdd!#71	vdd!#70	    1.4000	$mt2
+ $X=27.2 $Y=2.195
Rh166	vdd!#72	vdd!#67	    1.7531	$mt2
+ $X=26.78 $Y=1.165
Rh10	CLK#2	CLK#3	    1.5055	$mt2	$X=-2.2775 $Y=5.0705
Rh16	CLK#8	CLK#14	    2.8000	$mt2	$X=-0.255 $Y=1.555
Rh19	CLK#20	CLK#22	    2.8000	$mt2	$X=0.51 $Y=4.925
Rh27	CLK#24	CLK#25	    1.5055	$mt2	$X=2.5325 $Y=1.4105
Rh34	CLK#33	CLK#34	    1.5055	$mt2	$X=3.1225 $Y=5.0705
Rh46	CLK#39	CLK#45	    2.8000	$mt2	$X=5.37 $Y=1.555
Rh49	CLK#52	CLK#53	    2.8000	$mt2	$X=5.91 $Y=4.925
Rh60	CLK#57	CLK#58	    1.5055	$mt2	$X=8.1575 $Y=1.4105
Rh63	CLK#65	CLK#66	    1.5055	$mt2	$X=8.6225 $Y=5.0705
Rh77	CLK#72	CLK#71	    1.4000	$mt2	$X=10.36 $Y=1.53
Rh80	CLK#78	CLK#80	    2.8000	$mt2	$X=11.41 $Y=4.925
Rh88	CLK#85	CLK#86	    1.5055	$mt2	$X=14.0625 $Y=5.0705
Rh117	CLK#136	CLK#137	    2.8000	$mt2
+ $X=16.85 $Y=4.925
Rh118	CLK#141	CLK#146	    2.8000	$mt2
+ $X=17.41 $Y=1.555
Rh129	CLK#148	CLK#149	    2.9055	$mt2
+ $X=19.6025 $Y=5.0705
Rh131	CLK#152	CLK#153	    1.5055	$mt2
+ $X=20.1975 $Y=1.4105
Rh147	CLK#167	CLK#168	    2.8000	$mt2
+ $X=22.39 $Y=4.925
Rh148	CLK#172	CLK#178	    2.8000	$mt2
+ $X=23.03 $Y=1.555
Rh154	CLK#184	CLK#185	    1.5055	$mt2
+ $X=25.8175 $Y=1.4105
Rh1	Set#2	Set#1	    2.8000	$mt2	$X=-4.005 $Y=5
Rh20	Set#9	Set#10	    2.8000	$mt2	$X=1.395 $Y=5
Rh44	Set#22	Set#23	    1.4000	$mt2	$X=4.515 $Y=1.48
Rh50	Set#25	Set#26	    2.8000	$mt2	$X=6.895 $Y=5
Rh75	Set#35	Set#39	    1.6821	$mt2	$X=9.96 $Y=1.9405
Rh81	Set#41	Set#42	    2.8000	$mt2	$X=12.335 $Y=5
Rh108	Set#49	Set#50	    2.8000	$mt2	$X=15.22 $Y=1.34
Rh119	Set#58	Set#57	    2.8000	$mt2	$X=17.875 $Y=5
Rh144	Set#70	Set#71	    1.4000	$mt2	$X=22.18 $Y=1.48
Rh170	Set#78	Set#79	    1.4000	$mt2	$X=27.545 $Y=1.48
Rh17	avC8#13	avC8#17	    1.5147	$mt2
+ $X=0.348 $Y=5.225
Rh18	avC8#2	avC8#17	    0.7459	$mt2	$X=-0.775 $Y=5.21
Rh21	avC8#24	avC8#20	    0.7459	$mt2	$X=1.03 $Y=1.27
Rh22	avC8#9	avC8#20	    1.5147	$mt2	$X=-0.092 $Y=1.255
Rh47	avC8#45	avC8#48	    1.5147	$mt2
+ $X=5.748 $Y=5.225
Rh48	avC8#30	avC8#48	    0.7459	$mt2
+ $X=4.625 $Y=5.21
Rh52	avC8#54	avC8#50	    0.7459	$mt2
+ $X=6.655 $Y=1.27
Rh53	avC8#39	avC8#50	    1.5147	$mt2
+ $X=5.533 $Y=1.255
Rh78	avC8#81	avC8#86	    1.5147	$mt2
+ $X=11.248 $Y=5.225
Rh79	avC8#60	avC8#86	    0.7459	$mt2
+ $X=10.125 $Y=5.21
Rh90	avC8#66	avC8#119	2.000e-03	$mt2
+ $X=14.68 $Y=1.8475
Rh115	avC8#135	avC8#138	    1.5147	$mt2
+ $X=16.688 $Y=5.225
Rh116	avC8#127	avC8#138	    0.7459	$mt2
+ $X=15.565 $Y=5.21
Rh126	avC8#151	avC8#148	    0.7459	$mt2
+ $X=18.695 $Y=1.27
Rh127	avC8#145	avC8#148	    1.5147	$mt2
+ $X=17.573 $Y=1.255
Rh145	avC8#165	avC8#168	    1.5147	$mt2
+ $X=22.228 $Y=5.225
Rh146	avC8#160	avC8#168	    0.7459	$mt2
+ $X=21.105 $Y=5.21
Rh149	avC8#179	avC8#178	    0.7459	$mt2
+ $X=24.315 $Y=1.27
Rh150	avC8#175	avC8#178	    1.5147	$mt2
+ $X=23.193 $Y=1.255
Rh6	avC9#3	avC9#4	    1.4000	$mt2	$X=-2.9 $Y=4.915
Rh26	avC9#11	avC9#12	    2.8000	$mt2
+ $X=2.255 $Y=3.72
Rh36	avC9#22	avC9#23	    2.8000	$mt2	$X=3.4 $Y=2.76
Rh56	avC9#31	avC9#30	    2.8000	$mt2
+ $X=7.755 $Y=3.72
Rh64	avC9#43	avC9#44	    1.5080	$mt2
+ $X=8.67 $Y=2.9805
Rh84	avC9#49	avC9#50	    2.8000	$mt2
+ $X=13.195 $Y=3.72
Rh111	avC9#69	avC9#66	    0.2579	$mt2
+ $X=15.8775 $Y=1.62
Rh112	avC9#69	avC9#65	    0.2700	$mt2
+ $X=15.62 $Y=1.3275
Rh113	avC9#69	avC9#62	    0.1231	$mt2
+ $X=15.622 $Y=1.6895
Rh122	avC9#72	avC9#71	    2.8000	$mt2
+ $X=18.735 $Y=3.72
Rh138	avC9#86	avC9#88	    1.4000	$mt2
+ $X=21.065 $Y=2.76
Rh161	avC9#92	avC9#96	    1.9241	$mt2
+ $X=26.28 $Y=3.35
Rh121	I337/avC10	I337/avC10#5	    1.5200	$mt2
+ $X=18.3705 $Y=5.77
Rh125	I337/avC10#7	I337/avC10#6	    1.6152	$mt2
+ $X=18.76 $Y=4.555
Rh130	I337/avC10#17	I337/avC10#11	    3.1888	$mt2
+ $X=19.4975 $Y=4.235
Rh140	I337/I0/avC9#11	I337/I0/avC9#7	    2.9790	$mt2
+ $X=20.8905 $Y=4.1425
Rh83	I338/avC10	I338/avC10#5	    1.5200	$mt2
+ $X=12.8305 $Y=5.77
Rh87	I338/avC10#7	I338/avC10#6	    1.6152	$mt2
+ $X=13.22 $Y=4.555
Rh89	I338/avC10#17	I338/avC10#11	    3.1888	$mt2
+ $X=13.9575 $Y=4.235
Rh109	I338/I0/avC9#11	I338/I0/avC9#7	    2.9790	$mt2
+ $X=15.3505 $Y=4.1425
Rh55	I339/avC10	I339/avC10#5	    1.5200	$mt2
+ $X=7.3905 $Y=5.77
Rh59	I339/avC10#7	I339/avC10#6	    1.6152	$mt2
+ $X=7.78 $Y=4.555
Rh67	I339/avC10#12	I339/avC10#11	    3.1888	$mt2
+ $X=8.5175 $Y=4.235
Rh76	I339/I0/avC9#10	I339/I0/avC9#7	    2.9790	$mt2
+ $X=9.9105 $Y=4.1425
Rh25	I340/avC10	I340/avC10#5	    1.5200	$mt2
+ $X=1.8905 $Y=5.77
Rh31	I340/avC10#7	I340/avC10#6	    1.6152	$mt2
+ $X=2.28 $Y=4.555
Rh37	I340/avC10#17	I340/avC10#11	    3.1888	$mt2
+ $X=3.0175 $Y=4.235
Rh45	I340/I0/avC9#10	I340/I0/avC9#7	    2.9790	$mt2
+ $X=4.4105 $Y=4.1425
Rh3	I341/avC10	I341/avC10#6	    0.1200	$mt2
+ $X=-3.5095 $Y=5.77
Rh9	I341/avC10#7	I341/avC10#5	    1.6152	$mt2
+ $X=-3.12 $Y=4.555
Rh11	I341/avC10#17	I341/avC10#11	    3.1888	$mt2
+ $X=-2.3825 $Y=4.235
Rh15	I341/I0/avC9#11	I341/I0/avC9#7	    2.9790	$mt2
+ $X=-0.9895 $Y=4.1425
Rh159	I336/avC10#9	I336/avC10#2	    3.1888	$mt2
+ $X=25.9225 $Y=2.245
Rh163	I336/avC10#10	I336/avC10#14	    3.0152	$mt2
+ $X=26.66 $Y=1.925
Rh167	I336/avC10#16	I336/avC10#15	    1.5200	$mt2
+ $X=27.0505 $Y=0.71
Rh151	I336/I0/avC9#8	I336/I0/avC9#4	    2.9790	$mt2
+ $X=24.5305 $Y=2.3375
Rh136	I335/avC10#13	I335/avC10#2	    1.7888	$mt2
+ $X=20.3025 $Y=2.245
Rh139	I335/avC10#9	I335/avC10#14	    3.0152	$mt2
+ $X=21.04 $Y=1.925
Rh143	I335/avC10#18	I335/avC10#15	    0.1200	$mt2
+ $X=21.4305 $Y=0.71
Rh128	I335/I0/avC9#5	I335/I0/avC9#4	    2.9790	$mt2
+ $X=18.9105 $Y=2.3375
Rh65	I331/avC10#13	I331/avC10#2	    1.7888	$mt2
+ $X=8.2625 $Y=2.245
Rh68	I331/avC10#9	I331/avC10#14	    3.0152	$mt2	$X=9 $Y=1.925
Rh74	I331/avC10#18	I331/avC10#15	    0.1200	$mt2
+ $X=9.3905 $Y=0.71
Rh54	I331/I0/avC9#5	I331/I0/avC9#4	    2.9790	$mt2
+ $X=6.8705 $Y=2.3375
Rh33	I330/avC10#13	I330/avC10#2	    1.7888	$mt2
+ $X=2.6375 $Y=2.245
Rh38	I330/avC10#9	I330/avC10#14	    3.0152	$mt2
+ $X=3.375 $Y=1.925
Rh42	I330/avC10#18	I330/avC10#15	    0.1200	$mt2
+ $X=3.7655 $Y=0.71
Rh23	I330/I0/avC9#5	I330/I0/avC9#4	    2.9790	$mt2
+ $X=1.2455 $Y=2.3375
Ri884	gnd!#2	gnd!#1	   15.0533	$mt1	$X=27.09 $Y=6.04
Ri885	gnd!#2	gnd!	    2.8237	$mt1	$X=27.8825 $Y=3.3565
Ri886	gnd!#3	gnd!	    1.4327	$mt1	$X=22.621 $Y=0.28
Ri887	gnd!#3	gnd!	    1.3106	$mt1	$X=22.3045 $Y=0.28
Ri888	gnd!#4	gnd!	    1.4609	$mt1	$X=17.149 $Y=0.28
Ri889	gnd!#4	gnd!	    0.7884	$mt1	$X=14.476 $Y=0.27
Ri892	gnd!#6	gnd!	    0.3246	$mt1	$X=3.826 $Y=0.27
Ri895	gnd!#8	gnd!	    0.2242	$mt1	$X=-1.4975 $Y=0.27
Ri896	gnd!#10	gnd!#2	    0.4533	$mt1	$X=26.68 $Y=5.87
Ri898	gnd!#13	gnd!#2	    0.3733	$mt1	$X=25.32 $Y=5.99
Ri900	gnd!#16	gnd!#2	    0.4133	$mt1	$X=23.74 $Y=5.93
Ri902	gnd!#2	gnd!#18	    2.4450	$mt1	$X=23.3645 $Y=6.2
Ri903	gnd!#19	gnd!#18	    0.7933	$mt1
+ $X=20.58 $Y=6.21
Ri904	gnd!#21	gnd!#18	    0.3533	$mt1
+ $X=22.94 $Y=5.9425
Ri910	gnd!#30	gnd!#3	    0.3647	$mt1	$X=22.48 $Y=0.5375
Ri916	gnd!#39	gnd!	    0.3560	$mt1	$X=16.86 $Y=0.5375
Ri938	gnd!#72	gnd!	    0.3533	$mt1	$X=4.82 $Y=0.5375
Ri944	gnd!#81	gnd!	    0.3533	$mt1	$X=-0.805 $Y=0.5375
Ri946	gnd!#84	gnd!	    0.4233	$mt1	$X=-2.19 $Y=0.5725
Ri948	gnd!#87	gnd!	    0.3533	$mt1	$X=-3.25 $Y=0.535
Ri954	gnd!#18	gnd!#95	    2.7700	$mt1
+ $X=17.8345 $Y=6.2
Ri955	gnd!#96	gnd!#95	    0.7933	$mt1
+ $X=15.04 $Y=6.21
Ri956	gnd!#98	gnd!#95	    0.3533	$mt1
+ $X=17.4 $Y=5.9425
Ri962	gnd!#95	gnd!#106	    2.7200	$mt1
+ $X=12.3445 $Y=6.2
Ri963	gnd!#107	gnd!#106	    0.7933	$mt1	$X=9.6 $Y=6.21
Ri964	gnd!#109	gnd!#106	    0.3533	$mt1
+ $X=11.96 $Y=5.9425
Ri970	gnd!#106	gnd!#117	    2.7500	$mt1
+ $X=6.8745 $Y=6.2
Ri971	gnd!#118	gnd!#117	    0.7933	$mt1	$X=4.1 $Y=6.21
Ri972	gnd!#120	gnd!#117	    0.3533	$mt1
+ $X=6.46 $Y=5.9425
Ri978	gnd!#117	gnd!#128	    2.7000	$mt1
+ $X=1.4245 $Y=6.2
Ri979	gnd!#129	gnd!#128	    0.7933	$mt1	$X=-1.3 $Y=6.21
Ri980	gnd!#131	gnd!#128	    0.3533	$mt1
+ $X=1.06 $Y=5.9425
Ri986	gnd!#3	gnd!#1	   15.0000	$mt1	$X=22.46 $Y=0.24
Ri987	gnd!#4	gnd!#1	   15.0000	$mt1	$X=16.84 $Y=0.24
Ri988	gnd!#6	gnd!#1	   15.0000	$mt1	$X=4.8 $Y=0.24
Ri989	gnd!#8	gnd!#1	   15.0000	$mt1	$X=-0.825 $Y=0.24
Ri990	gnd!#10	gnd!#9	   15.0000	$mt1	$X=26.68 $Y=5.5
Ri991	gnd!#13	gnd!#12	   15.0000	$mt1
+ $X=25.32 $Y=5.62
Ri992	gnd!#16	gnd!#15	   15.0000	$mt1
+ $X=23.74 $Y=5.56
Ri993	gnd!#19	gnd!#1	   15.0000	$mt1	$X=22.96 $Y=6.24
Ri994	gnd!#21	gnd!#20	   15.0000	$mt1
+ $X=22.94 $Y=5.645
Ri997	gnd!#30	gnd!#29	   15.0000	$mt1
+ $X=22.48 $Y=0.835
Ri1000	gnd!#39	gnd!#38	   15.0000	$mt1
+ $X=16.86 $Y=0.835
Ri1011	gnd!#72	gnd!#71	   15.0000	$mt1
+ $X=4.82 $Y=0.835
Ri1014	gnd!#81	gnd!#80	   15.0000	$mt1
+ $X=-0.805 $Y=0.835
Ri1015	gnd!#84	gnd!#83	   15.0000	$mt1
+ $X=-2.19 $Y=0.935
Ri1016	gnd!#87	gnd!#86	   15.0000	$mt1
+ $X=-3.25 $Y=0.83
Ri1019	gnd!#96	gnd!#1	   15.0000	$mt1	$X=17.42 $Y=6.24
Ri1020	gnd!#98	gnd!#97	   15.0000	$mt1
+ $X=17.4 $Y=5.645
Ri1023	gnd!#107	gnd!#1	   15.0000	$mt1	$X=11.98 $Y=6.24
Ri1024	gnd!#109	gnd!#108	   15.0000	$mt1
+ $X=11.96 $Y=5.645
Ri1027	gnd!#118	gnd!#1	   15.0000	$mt1	$X=6.48 $Y=6.24
Ri1028	gnd!#120	gnd!#119	   15.0000	$mt1
+ $X=6.46 $Y=5.645
Ri1031	gnd!#129	gnd!#1	   15.0000	$mt1	$X=1.08 $Y=6.24
Ri1032	gnd!#131	gnd!#130	   15.0000	$mt1
+ $X=1.06 $Y=5.645
Ri51	9_B0	9_B0#1	    0.1180	$mt1	$X=-0.9045 $Y=1.4
Ri52	9_B0#1	9_B0#7	    0.4467	$mt1	$X=-1.4925 $Y=1.36
Ri53	9_B0#7	9_B0#9	    0.3500	$mt1	$X=-1.77 $Y=1.1925
Ri55	9_B0#7	9_B0#12	    0.5267	$mt1	$X=-1.77 $Y=1.7525
Ri57	9_B0#8	9_B0#9	   15.0000	$mt1	$X=-1.77 $Y=0.935
Ri58	9_B0#11	9_B0#12	    7.5000	$mt1
+ $X=-1.77 $Y=2.25
Ri698	9_B0#17	9_B0#18	5.508e-02	$mt1
+ $X=26.96 $Y=4.82
Ri196	avC11#6	avC11#8	    0.4400	$mt1
+ $X=3.495 $Y=1.6805
Ri197	avC11#8	avC11#9	    0.2203	$mt1
+ $X=3.495 $Y=1.303
Ri198	avC11#9	avC11#11	    0.2269	$mt1
+ $X=3.495 $Y=1.0075
Ri200	avC11#9	avC11#3	    0.9301	$mt1
+ $X=4.1425 $Y=1.135
Ri202	avC11#5	avC11#6	    7.5000	$mt1
+ $X=3.495 $Y=2.13
Ri203	avC11#10	avC11#11	   15.0000	$mt1
+ $X=3.495 $Y=0.79
Ri314	avC13#2	avC13#4	    0.4400	$mt1
+ $X=9.12 $Y=1.6805
Ri315	avC13#4	avC13#6	    0.4533	$mt1
+ $X=9.12 $Y=1.1755
Ri317	avC13#2	avC13#8	    1.8528	$mt1
+ $X=9.12 $Y=2.592
Ri318	avC13	avC13#2	    7.5000	$mt1	$X=9.12 $Y=2.13
Ri319	avC13#5	avC13#6	   15.0000	$mt1	$X=9.12 $Y=0.79
Ri471	avC13#13	avC13#16	    1.4600	$mt1
+ $X=16.9225 $Y=1.4
Ri600	avC16#6	avC16#8	    0.4400	$mt1
+ $X=21.16 $Y=1.6805
Ri601	avC16#8	avC16#9	    0.2203	$mt1
+ $X=21.16 $Y=1.303
Ri602	avC16#9	avC16#11	    0.2269	$mt1
+ $X=21.16 $Y=1.0075
Ri604	avC16#9	avC16#3	    0.9268	$mt1
+ $X=21.805 $Y=1.135
Ri606	avC16#5	avC16#6	    7.5000	$mt1
+ $X=21.16 $Y=2.13
Ri607	avC16#10	avC16#11	   15.0000	$mt1
+ $X=21.16 $Y=0.79
Ri692	avC18#7	avC18#9	    0.4400	$mt1
+ $X=26.78 $Y=1.6805
Ri693	avC18#9	avC18#11	    0.4533	$mt1
+ $X=26.78 $Y=1.1755
Ri695	avC18#7	avC18#13	    1.8221	$mt1
+ $X=26.78 $Y=2.5695
Ri696	avC18#6	avC18#7	    7.5000	$mt1
+ $X=26.78 $Y=2.13
Ri697	avC18#10	avC18#11	   15.0000	$mt1
+ $X=26.78 $Y=0.79
Ri702	avC18#5	avC18#17	    0.6872	$mt1
+ $X=26.6925 $Y=5.16
Ri703	avC18#17	avC18#14	1.825e-02	$mt1
+ $X=27.2625 $Y=5.205
Ri123	avC10#6	avC10#8	    0.2303	$mt1
+ $X=2.16 $Y=5.4705
Ri124	avC10#8	avC10	    0.7774	$mt1	$X=1.625 $Y=5.34
Ri126	avC10#8	avC10#10	    0.2169	$mt1
+ $X=2.16 $Y=5.175
Ri127	avC10#10	avC10#12	    0.4400	$mt1
+ $X=2.16 $Y=4.8005
Ri129	avC10#5	avC10#6	   15.0000	$mt1	$X=2.16 $Y=5.69
Ri130	avC10#11	avC10#12	    7.5000	$mt1	$X=2.16 $Y=4.35
Ri7	avC6#2	avC6#4	    0.4533	$mt1	$X=-3.24 $Y=5.3055
Ri8	avC6#4	avC6#6	    0.4400	$mt1	$X=-3.24 $Y=4.8005
Ri10	avC6#6	avC6#8	    1.7244	$mt1	$X=-3.24 $Y=4.0505
Ri11	avC6	avC6#2	   15.0000	$mt1	$X=-3.24 $Y=5.69
Ri12	avC6#5	avC6#6	    7.5000	$mt1	$X=-3.24 $Y=4.35
Ri13	avC6#12	avC6#14	2.400e-02	$mt1	$X=-3.14 $Y=1.4
Ri259	avC12#6	avC12#8	    0.2303	$mt1
+ $X=7.66 $Y=5.4705
Ri260	avC12#8	avC12	    0.8441	$mt1	$X=7.075 $Y=5.34
Ri262	avC12#8	avC12#10	    0.2169	$mt1
+ $X=7.66 $Y=5.175
Ri263	avC12#10	avC12#12	    0.4400	$mt1
+ $X=7.66 $Y=4.8005
Ri265	avC12#5	avC12#6	   15.0000	$mt1	$X=7.66 $Y=5.69
Ri266	avC12#11	avC12#12	    7.5000	$mt1	$X=7.66 $Y=4.35
Ri384	avC14#6	avC14#8	    0.2303	$mt1
+ $X=13.1 $Y=5.4705
Ri385	avC14#8	avC14	    0.8041	$mt1	$X=12.545 $Y=5.34
Ri387	avC14#8	avC14#10	    0.2169	$mt1
+ $X=13.1 $Y=5.175
Ri388	avC14#10	avC14#12	    0.4400	$mt1
+ $X=13.1 $Y=4.8005
Ri390	avC14#5	avC14#6	   15.0000	$mt1	$X=13.1 $Y=5.69
Ri391	avC14#11	avC14#12	    7.5000	$mt1	$X=13.1 $Y=4.35
Ri491	avC15#6	avC15#8	    0.2303	$mt1
+ $X=18.64 $Y=5.4705
Ri492	avC15#8	avC15	    0.8708	$mt1	$X=18.035 $Y=5.34
Ri494	avC15#8	avC15#10	    0.2169	$mt1
+ $X=18.64 $Y=5.175
Ri495	avC15#10	avC15#12	    0.4400	$mt1
+ $X=18.64 $Y=4.8005
Ri497	avC15#5	avC15#6	   15.0000	$mt1
+ $X=18.64 $Y=5.69
Ri498	avC15#11	avC15#12	    7.5000	$mt1
+ $X=18.64 $Y=4.35
Ri619	avC17	avC17#6	    0.9691	$mt1	$X=23.35 $Y=4.6675
Ri620	avC17#6	avC17#7	2.308e-02	$mt1
+ $X=23.87 $Y=4.36
Ri621	avC17#7	avC17#8	   15.0046	$mt1
+ $X=23.9475 $Y=4.36
Ri636	avC17#9	avC17#10	    2.2010	$mt1
+ $X=24.645 $Y=4.9075
Ri637	avC17#10	avC17#12	3.934e-03	$mt1
+ $X=24.3925 $Y=5.525
Ri639	avC17#11	avC17#12	   15.0000	$mt1
+ $X=24.38 $Y=5.56
Ri652	avC17#15	avC17#17	    0.1033	$mt1
+ $X=25.4075 $Y=4.2875
Ri653	avC17#14	avC17#15	    5.0000	$mt1
+ $X=25.42 $Y=4.205
Ri672	avC17#18	avC17#20	    1.4046	$mt1
+ $X=25.8525 $Y=5.5
Ri674	avC17#19	avC17#20	   15.0000	$mt1	$X=25.84 $Y=5.5
Ri30	avC7#2	avC7#3	    0.2916	$mt1	$X=-2.515 $Y=1.4475
Ri31	avC7#3	avC7#5	    0.3833	$mt1	$X=-2.71 $Y=1.148
Ri33	avC7#3	avC7#8	    0.3089	$mt1	$X=-2.71 $Y=1.6425
Ri35	avC7#4	avC7#5	   15.0000	$mt1	$X=-2.71 $Y=0.83
Ri36	avC7#7	avC7#8	   15.0000	$mt1	$X=-2.77 $Y=1.895
Ri633	I334/avC7#4	I334/avC7#2	    0.7347	$mt1
+ $X=24.38 $Y=4.892
Ri634	I334/avC7#4	I334/avC7#6	   10.4700	$mt1
+ $X=24.38 $Y=3.978
Ri635	I334/avC7#3	I334/avC7#4	   15.0000	$mt1
+ $X=24.38 $Y=4.36
Ri677	I334/avC7#10	I334/avC7#8	   15.0000	$mt1	$X=26.26 $Y=5.5
Ri688	I334/avC7#13	I334/avC7#15	2.500e-02	$mt1
+ $X=26.765 $Y=4.29
Ri689	I334/avC7#15	I334/avC7#16	   10.2625	$mt1
+ $X=26.76 $Y=3.973
Ri690	I334/avC7#12	I334/avC7#13	   15.0000	$mt1
+ $X=26.78 $Y=4.29
Ri662	I334/avC6#5	I334/avC6#7	    0.9750	$mt1
+ $X=25.5255 $Y=4.905
Ri663	I334/avC6#7	I334/avC6#9	    0.5183	$mt1
+ $X=24.9 $Y=4.905
Ri665	I334/avC6#7	I334/avC6	    0.5639	$mt1
+ $X=25.02 $Y=4.4575
Ri666	I334/avC6#4	I334/avC6#5	    5.0000	$mt1
+ $X=25.84 $Y=4.205
Ri667	I334/avC6#8	I334/avC6#9	   15.0000	$mt1	$X=24.9 $Y=5.62
Ri569	I337/I0/avC8	I337/I0/avC8#6	    0.9970	$mt1
+ $X=20.8905 $Y=5.345
Ri572	I337/I0/avC8#6	I337/I0/avC8#5	   15.0000	$mt1
+ $X=21.36 $Y=5.735
Ri440	I338/I0/avC8	I338/I0/avC8#6	    0.9970	$mt1
+ $X=15.3505 $Y=5.345
Ri443	I338/I0/avC8#6	I338/I0/avC8#5	   15.0000	$mt1
+ $X=15.82 $Y=5.735
Ri330	I339/I0/avC8	I339/I0/avC8#6	    0.9970	$mt1
+ $X=9.9105 $Y=5.345
Ri333	I339/I0/avC8#6	I339/I0/avC8#5	   15.0000	$mt1
+ $X=10.38 $Y=5.735
Ri187	I340/I0/avC8	I340/I0/avC8#6	    0.9970	$mt1
+ $X=4.4105 $Y=5.345
Ri190	I340/I0/avC8#6	I340/I0/avC8#5	   15.0000	$mt1
+ $X=4.88 $Y=5.735
Ri60	I341/I0/avC8	I341/I0/avC8#6	    0.9970	$mt1
+ $X=-0.9895 $Y=5.345
Ri63	I341/I0/avC8#6	I341/I0/avC8#5	   15.0000	$mt1
+ $X=-0.52 $Y=5.735
Ri647	I336/I0/avC8#6	I336/I0/avC8	    0.9970	$mt1	$X=25 $Y=1.015
Ri650	I336/I0/avC8#6	I336/I0/avC8#5	   15.0000	$mt1
+ $X=24.06 $Y=0.745
Ri525	I335/I0/avC8#6	I335/I0/avC8	    0.9970	$mt1
+ $X=19.38 $Y=1.015
Ri528	I335/I0/avC8#6	I335/I0/avC8#5	   15.0000	$mt1
+ $X=18.44 $Y=0.745
Ri254	I331/I0/avC8#6	I331/I0/avC8	    0.9970	$mt1
+ $X=7.34 $Y=1.015
Ri257	I331/I0/avC8#6	I331/I0/avC8#5	   15.0000	$mt1	$X=6.4 $Y=0.745
Ri118	I330/I0/avC8#6	I330/I0/avC8	    0.9970	$mt1
+ $X=1.715 $Y=1.015
Ri121	I330/I0/avC8#6	I330/I0/avC8#5	   15.0000	$mt1
+ $X=0.775 $Y=0.745
Ri21	vdd!#4	vdd!#5	   15.0000	$mt1	$X=-2.82 $Y=5.69
Ri146	vdd!#12	vdd!#13	   15.0000	$mt1	$X=2.58 $Y=5.69
Ri160	vdd!#17	vdd!#18	   15.0000	$mt1
+ $X=3.075 $Y=0.79
Ri278	vdd!#28	vdd!#29	   15.0000	$mt1	$X=8.08 $Y=5.69
Ri302	vdd!#33	vdd!#34	   15.0000	$mt1	$X=8.7 $Y=0.79
Ri396	vdd!#44	vdd!#45	   15.0000	$mt1
+ $X=13.52 $Y=5.69
Ri510	vdd!#52	vdd!#53	   15.0000	$mt1
+ $X=19.06 $Y=5.69
Ri564	vdd!#57	vdd!#58	   15.0000	$mt1
+ $X=20.74 $Y=0.79
Ri683	vdd!#68	vdd!#65	   15.0000	$mt1
+ $X=26.36 $Y=0.79
Ri705	vdd!#74	vdd!	    0.6490	$mt1	$X=27.2 $Y=3.7855
Ri706	vdd!#76	vdd!	    0.5149	$mt1	$X=27.2 $Y=2.805
Ri707	vdd!#76	vdd!#71	2.000e-02	$mt1
+ $X=27.1995 $Y=2.2325
Ri708	vdd!#76	vdd!#71	1.733e-02	$mt1
+ $X=27.2 $Y=2.1625
Ri709	vdd!#78	vdd!#76	1.733e-02	$mt1
+ $X=27.2 $Y=2.1625
Ri712	vdd!#83	vdd!	    0.5767	$mt1	$X=26.26 $Y=3.5775
Ri716	vdd!#89	vdd!	8.667e-02	$mt1	$X=22.54 $Y=3.07
Ri717	vdd!#91	vdd!#89	    0.4867	$mt1
+ $X=22.48 $Y=2.605
Ri719	vdd!#88	vdd!	   15.0918	$mt1	$X=23.78 $Y=3.41
Ri720	vdd!#93	vdd!	8.667e-02	$mt1	$X=22.88 $Y=3.41
Ri721	vdd!#95	vdd!#93	    0.4867	$mt1
+ $X=22.94 $Y=3.875
Ri723	vdd!#97	vdd!	    0.4920	$mt1	$X=21.58 $Y=2.805
Ri724	vdd!#97	vdd!#64	2.000e-02	$mt1
+ $X=21.5795 $Y=2.2325
Ri725	vdd!#97	vdd!#64	1.733e-02	$mt1
+ $X=21.58 $Y=2.1625
Ri726	vdd!#99	vdd!#97	1.733e-02	$mt1
+ $X=21.58 $Y=2.1625
Ri735	vdd!#49	vdd!	    0.5120	$mt1	$X=18.22 $Y=3.6925
Ri736	vdd!#112	vdd!#49	1.733e-02	$mt1
+ $X=18.2195 $Y=4.3175
Ri737	vdd!#114	vdd!#112	1.733e-02	$mt1
+ $X=18.2195 $Y=4.3175
Ri738	vdd!#115	vdd!	8.667e-02	$mt1	$X=16.92 $Y=3.07
Ri739	vdd!#117	vdd!#115	    0.4867	$mt1
+ $X=16.86 $Y=2.605
Ri741	vdd!#119	vdd!	8.667e-02	$mt1	$X=17.34 $Y=3.41
Ri742	vdd!#121	vdd!#119	    0.4867	$mt1
+ $X=17.4 $Y=3.875
Ri748	vdd!#88	vdd!	   15.0867	$mt1	$X=15.62 $Y=3.07
Ri761	vdd!#42	vdd!	    0.5224	$mt1	$X=12.68 $Y=3.6925
Ri762	vdd!#147	vdd!#42	1.733e-02	$mt1
+ $X=12.6795 $Y=4.3175
Ri763	vdd!#149	vdd!#147	1.733e-02	$mt1
+ $X=12.6795 $Y=4.3175
Ri766	vdd!#153	vdd!	9.134e-02	$mt1	$X=11.9 $Y=3.41
Ri767	vdd!#155	vdd!#153	    0.4867	$mt1
+ $X=11.96 $Y=3.875
Ri773	vdd!#163	vdd!	    0.4920	$mt1	$X=9.54 $Y=2.805
Ri774	vdd!#163	vdd!#39	2.000e-02	$mt1
+ $X=9.5395 $Y=2.2325
Ri775	vdd!#163	vdd!#39	1.733e-02	$mt1
+ $X=9.54 $Y=2.1625
Ri776	vdd!#165	vdd!#163	1.733e-02	$mt1
+ $X=9.54 $Y=2.1625
Ri781	vdd!#25	vdd!	    0.5120	$mt1	$X=7.24 $Y=3.6925
Ri782	vdd!#172	vdd!#25	1.733e-02	$mt1
+ $X=7.2395 $Y=4.3175
Ri783	vdd!#174	vdd!#172	1.733e-02	$mt1
+ $X=7.2395 $Y=4.3175
Ri786	vdd!#178	vdd!	8.667e-02	$mt1	$X=6.4 $Y=3.41
Ri787	vdd!#180	vdd!#178	    0.4867	$mt1
+ $X=6.46 $Y=3.875
Ri789	vdd!#182	vdd!	8.667e-02	$mt1	$X=4.88 $Y=3.07
Ri790	vdd!#184	vdd!#182	    0.4867	$mt1
+ $X=4.82 $Y=2.605
Ri794	vdd!#189	vdd!	    0.4920	$mt1	$X=3.915 $Y=2.805
Ri795	vdd!#189	vdd!#23	2.000e-02	$mt1
+ $X=3.9145 $Y=2.2325
Ri796	vdd!#189	vdd!#23	1.733e-02	$mt1
+ $X=3.915 $Y=2.1625
Ri797	vdd!#191	vdd!#189	1.733e-02	$mt1
+ $X=3.915 $Y=2.1625
Ri802	vdd!#9	vdd!	    0.5120	$mt1	$X=1.74 $Y=3.6925
Ri803	vdd!#198	vdd!#9	1.733e-02	$mt1	$X=1.7395 $Y=4.3175
Ri804	vdd!#200	vdd!#198	1.733e-02	$mt1
+ $X=1.7395 $Y=4.3175
Ri807	vdd!#204	vdd!	8.667e-02	$mt1	$X=1 $Y=3.41
Ri808	vdd!#206	vdd!#204	    0.4867	$mt1
+ $X=1.06 $Y=3.875
Ri810	vdd!#208	vdd!	8.667e-02	$mt1	$X=-0.745 $Y=3.07
Ri811	vdd!#210	vdd!#208	    0.4867	$mt1
+ $X=-0.805 $Y=2.605
Ri815	vdd!#216	vdd!	    0.5933	$mt1	$X=-2.19 $Y=2.815
Ri819	vdd!#88	vdd!	   15.0867	$mt1	$X=-2.75 $Y=3.07
Ri820	vdd!#222	vdd!	    0.8300	$mt1	$X=-3.19 $Y=2.5475
Ri822	vdd!#1	vdd!	    0.5349	$mt1	$X=-3.66 $Y=3.6925
Ri823	vdd!#224	vdd!#1	1.733e-02	$mt1	$X=-3.6605 $Y=4.3175
Ri824	vdd!#226	vdd!#224	1.733e-02	$mt1
+ $X=-3.6605 $Y=4.3175
Ri825	vdd!#74	vdd!#73	   15.0000	$mt1	$X=27.2 $Y=4.29
Ri826	vdd!#78	vdd!#77	    7.5000	$mt1	$X=27.2 $Y=2.13
Ri828	vdd!#83	vdd!#82	    5.0000	$mt1
+ $X=26.26 $Y=4.205
Ri830	vdd!#89	vdd!#88	   15.0000	$mt1
+ $X=22.54 $Y=2.94
Ri831	vdd!#91	vdd!#90	   15.0000	$mt1
+ $X=22.48 $Y=2.15
Ri832	vdd!#93	vdd!#88	   15.0000	$mt1
+ $X=22.88 $Y=3.54
Ri833	vdd!#95	vdd!#94	   15.0000	$mt1
+ $X=22.94 $Y=4.33
Ri834	vdd!#99	vdd!#98	    7.5000	$mt1
+ $X=21.58 $Y=2.13
Ri839	vdd!#114	vdd!#113	    7.5000	$mt1
+ $X=18.22 $Y=4.35
Ri840	vdd!#115	vdd!#88	   15.0000	$mt1
+ $X=16.92 $Y=2.94
Ri841	vdd!#117	vdd!#116	   15.0000	$mt1
+ $X=16.86 $Y=2.15
Ri842	vdd!#119	vdd!#88	   15.0000	$mt1
+ $X=17.34 $Y=3.54
Ri843	vdd!#121	vdd!#120	   15.0000	$mt1	$X=17.4 $Y=4.33
Ri852	vdd!#149	vdd!#148	    7.5000	$mt1
+ $X=12.68 $Y=4.35
Ri854	vdd!#153	vdd!#88	   15.0000	$mt1	$X=11.9 $Y=3.54
Ri855	vdd!#155	vdd!#154	   15.0000	$mt1
+ $X=11.96 $Y=4.33
Ri858	vdd!#165	vdd!#164	    7.5000	$mt1	$X=9.54 $Y=2.13
Ri861	vdd!#174	vdd!#173	    7.5000	$mt1	$X=7.24 $Y=4.35
Ri863	vdd!#178	vdd!#88	   15.0000	$mt1	$X=6.4 $Y=3.54
Ri864	vdd!#180	vdd!#179	   15.0000	$mt1	$X=6.46 $Y=4.33
Ri865	vdd!#182	vdd!#88	   15.0000	$mt1	$X=4.88 $Y=2.94
Ri866	vdd!#184	vdd!#183	   15.0000	$mt1	$X=4.82 $Y=2.15
Ri868	vdd!#191	vdd!#190	    7.5000	$mt1
+ $X=3.915 $Y=2.13
Ri871	vdd!#200	vdd!#199	    7.5000	$mt1	$X=1.74 $Y=4.35
Ri873	vdd!#204	vdd!#88	   15.0000	$mt1	$X=1 $Y=3.54
Ri874	vdd!#206	vdd!#205	   15.0000	$mt1	$X=1.06 $Y=4.33
Ri875	vdd!#208	vdd!#88	   15.0000	$mt1
+ $X=-0.745 $Y=2.94
Ri876	vdd!#210	vdd!#209	   15.0000	$mt1
+ $X=-0.805 $Y=2.15
Ri878	vdd!#216	vdd!#215	    7.5000	$mt1
+ $X=-2.19 $Y=2.25
Ri880	vdd!#222	vdd!#221	   15.0000	$mt1
+ $X=-3.19 $Y=1.895
Ri881	vdd!#226	vdd!#225	    7.5000	$mt1
+ $X=-3.66 $Y=4.35
Ri23	CLK#2	CLK#1	   11.4000	$mt1	$X=-2.275 $Y=5.215
Ri68	CLK#7	CLK#8	1.882e-02	$mt1	$X=-0.255 $Y=1.635
Ri69	CLK#9	CLK#8	6.452e-03	$mt1	$X=-0.255 $Y=1.555
Ri70	CLK#10	CLK#7	6.452e-03	$mt1	$X=-0.255 $Y=1.635
Ri71	CLK#10	CLK#9	1.882e-02	$mt1	$X=-0.23 $Y=1.595
Ri72	CLK#11	CLK#12	6.452e-03	$mt1	$X=-0.205 $Y=1.675
Ri73	CLK#11	CLK#10	9.412e-03	$mt1	$X=-0.23 $Y=1.655
Ri90	CLK#15	CLK#16	9.412e-03	$mt1	$X=0.51 $Y=4.845
Ri91	CLK#17	CLK#16	6.452e-03	$mt1	$X=0.46 $Y=4.805
Ri92	CLK#18	CLK#15	6.452e-03	$mt1	$X=0.51 $Y=4.845
Ri93	CLK#18	CLK#17	9.412e-03	$mt1	$X=0.485 $Y=4.825
Ri94	CLK#19	CLK#20	6.452e-03	$mt1	$X=0.51 $Y=4.925
Ri95	CLK#19	CLK#18	1.882e-02	$mt1	$X=0.485 $Y=4.885
Ri145	CLK#24	CLK#23	   11.4000	$mt1	$X=2.53 $Y=1.265
Ri162	CLK#33	CLK#32	   11.4000	$mt1	$X=3.125 $Y=5.215
Ri204	CLK#38	CLK#39	1.882e-02	$mt1	$X=5.37 $Y=1.635
Ri205	CLK#40	CLK#39	6.452e-03	$mt1	$X=5.37 $Y=1.555
Ri206	CLK#41	CLK#38	6.452e-03	$mt1	$X=5.37 $Y=1.635
Ri207	CLK#41	CLK#40	1.882e-02	$mt1	$X=5.395 $Y=1.595
Ri208	CLK#42	CLK#43	6.452e-03	$mt1	$X=5.42 $Y=1.675
Ri209	CLK#42	CLK#41	9.412e-03	$mt1	$X=5.395 $Y=1.655
Ri226	CLK#48	CLK#47	9.412e-03	$mt1	$X=5.91 $Y=4.845
Ri227	CLK#49	CLK#47	6.452e-03	$mt1	$X=5.86 $Y=4.805
Ri228	CLK#50	CLK#48	6.452e-03	$mt1	$X=5.91 $Y=4.845
Ri229	CLK#50	CLK#49	9.412e-03	$mt1	$X=5.885 $Y=4.825
Ri230	CLK#51	CLK#52	6.452e-03	$mt1	$X=5.91 $Y=4.925
Ri231	CLK#51	CLK#50	1.882e-02	$mt1	$X=5.885 $Y=4.885
Ri283	CLK#57	CLK#56	   11.4000	$mt1	$X=8.155 $Y=1.265
Ri292	CLK#65	CLK#64	   11.4000	$mt1	$X=8.625 $Y=5.215
Ri360	CLK#73	CLK#74	9.412e-03	$mt1	$X=11.41 $Y=4.845
Ri361	CLK#75	CLK#74	6.452e-03	$mt1	$X=11.36 $Y=4.805
Ri362	CLK#76	CLK#73	6.452e-03	$mt1	$X=11.41 $Y=4.845
Ri363	CLK#76	CLK#75	9.412e-03	$mt1	$X=11.385 $Y=4.825
Ri364	CLK#77	CLK#78	6.452e-03	$mt1	$X=11.41 $Y=4.925
Ri365	CLK#77	CLK#76	1.882e-02	$mt1	$X=11.385 $Y=4.885
Ri371	CLK#72	CLK#83	    5.8223	$mt1	$X=11.283 $Y=1.4975
Ri372	CLK#72	CLK	9.613e-02	$mt1	$X=10.2295 $Y=1.4975
Ri409	CLK#85	CLK#84	   11.4000	$mt1	$X=14.065 $Y=5.215
Ri464	CLK#132	CLK#131	9.412e-03	$mt1
+ $X=16.85 $Y=4.845
Ri465	CLK#133	CLK#131	6.452e-03	$mt1
+ $X=16.8 $Y=4.805
Ri466	CLK#134	CLK#132	6.452e-03	$mt1
+ $X=16.85 $Y=4.845
Ri467	CLK#134	CLK#133	9.412e-03	$mt1
+ $X=16.825 $Y=4.825
Ri468	CLK#135	CLK#136	6.452e-03	$mt1
+ $X=16.85 $Y=4.925
Ri469	CLK#135	CLK#134	1.882e-02	$mt1
+ $X=16.825 $Y=4.885
Ri472	CLK#140	CLK#141	1.882e-02	$mt1
+ $X=17.41 $Y=1.635
Ri473	CLK#142	CLK#141	6.452e-03	$mt1
+ $X=17.41 $Y=1.555
Ri474	CLK#143	CLK#140	6.452e-03	$mt1
+ $X=17.41 $Y=1.635
Ri475	CLK#143	CLK#142	1.882e-02	$mt1
+ $X=17.435 $Y=1.595
Ri476	CLK#144	CLK#145	6.452e-03	$mt1
+ $X=17.46 $Y=1.675
Ri477	CLK#144	CLK#143	9.412e-03	$mt1
+ $X=17.435 $Y=1.655
Ri529	CLK#148	CLK#150	   10.0000	$mt1
+ $X=19.605 $Y=5.215
Ri552	CLK#152	CLK#151	   11.4000	$mt1
+ $X=20.195 $Y=1.265
Ri593	CLK#163	CLK#162	9.412e-03	$mt1
+ $X=22.39 $Y=4.845
Ri594	CLK#164	CLK#162	6.452e-03	$mt1
+ $X=22.34 $Y=4.805
Ri595	CLK#165	CLK#163	6.452e-03	$mt1
+ $X=22.39 $Y=4.845
Ri596	CLK#165	CLK#164	9.412e-03	$mt1
+ $X=22.365 $Y=4.825
Ri597	CLK#166	CLK#167	6.452e-03	$mt1
+ $X=22.39 $Y=4.925
Ri598	CLK#166	CLK#165	1.882e-02	$mt1
+ $X=22.365 $Y=4.885
Ri608	CLK#171	CLK#172	1.882e-02	$mt1
+ $X=23.03 $Y=1.635
Ri609	CLK#173	CLK#172	6.452e-03	$mt1
+ $X=23.03 $Y=1.555
Ri610	CLK#174	CLK#171	6.452e-03	$mt1
+ $X=23.03 $Y=1.635
Ri611	CLK#174	CLK#173	1.882e-02	$mt1
+ $X=23.055 $Y=1.595
Ri612	CLK#175	CLK#176	6.452e-03	$mt1
+ $X=23.08 $Y=1.675
Ri613	CLK#175	CLK#174	9.412e-03	$mt1
+ $X=23.055 $Y=1.655
Ri671	CLK#184	CLK#183	    1.4000	$mt1
+ $X=25.815 $Y=1.265
Ri5	Set#4	Set#2	    0.1916	$mt1	$X=-3.835 $Y=5.08
Ri111	Set#12	Set#9	    0.1916	$mt1	$X=1.565 $Y=5.08
Ri185	Set#22	Set#17	    1.7616	$mt1	$X=4.2175 $Y=1.4
Ri246	Set#28	Set#25	    0.1916	$mt1	$X=7.065 $Y=5.08
Ri328	Set#35	Set#33	    1.5470	$mt1	$X=9.68 $Y=1.47
Ri377	Set#44	Set#41	    0.1916	$mt1	$X=12.505 $Y=5.08
Ri448	Set#49	Set	1.833e-02	$mt1	$X=15.22 $Y=1.34
Ri449	Set#49	Set	4.167e-03	$mt1	$X=15.2325 $Y=1.365
Ri450	Set#52	Set	    5.1349	$mt1	$X=15.36 $Y=1.3675
Ri486	Set#60	Set#58	    0.1916	$mt1	$X=18.045 $Y=5.08
Ri580	Set#70	Set#65	    1.7616	$mt1	$X=21.8825 $Y=1.4
Ri883	Set#78	Set#73	    1.5916	$mt1	$X=27.375 $Y=1.4
Ri48	avC8#2	avC8	   11.4000	$mt1	$X=-1.365 $Y=4.8
Ri75	avC8#7	avC8#8	8.163e-03	$mt1	$X=-0.205 $Y=1.19
Ri76	avC8#10	avC8#9	8.163e-03	$mt1	$X=-0.255 $Y=1.245
Ri77	avC8#10	avC8#7	1.294e-02	$mt1	$X=-0.23 $Y=1.2175
Ri85	avC8#12	avC8#13	1.118e-02	$mt1
+ $X=0.51 $Y=5.2825
Ri86	avC8#14	avC8#13	8.163e-03	$mt1
+ $X=0.51 $Y=5.235
Ri87	avC8#16	avC8#15	8.163e-03	$mt1	$X=0.46 $Y=5.29
Ri88	avC8#16	avC8#12	8.163e-03	$mt1
+ $X=0.51 $Y=5.2825
Ri89	avC8#16	avC8#14	1.118e-02	$mt1
+ $X=0.485 $Y=5.2585
Ri106	avC8#24	avC8#25	   11.4000	$mt1	$X=1.62 $Y=1.68
Ri183	avC8#30	avC8#29	   11.4000	$mt1	$X=4.035 $Y=4.8
Ri211	avC8#37	avC8#38	8.163e-03	$mt1	$X=5.42 $Y=1.19
Ri212	avC8#40	avC8#39	8.163e-03	$mt1
+ $X=5.37 $Y=1.245
Ri213	avC8#40	avC8#37	1.294e-02	$mt1
+ $X=5.395 $Y=1.2175
Ri221	avC8#44	avC8#45	1.118e-02	$mt1
+ $X=5.91 $Y=5.2825
Ri222	avC8#46	avC8#45	8.163e-03	$mt1
+ $X=5.91 $Y=5.235
Ri223	avC8#47	avC8#43	8.163e-03	$mt1	$X=5.86 $Y=5.29
Ri224	avC8#47	avC8#44	8.163e-03	$mt1
+ $X=5.91 $Y=5.2825
Ri225	avC8#47	avC8#46	1.118e-02	$mt1
+ $X=5.885 $Y=5.2585
Ri247	avC8#54	avC8#55	   11.4000	$mt1
+ $X=7.245 $Y=1.68
Ri326	avC8#60	avC8#59	   11.4000	$mt1	$X=9.535 $Y=4.8
Ri355	avC8#80	avC8#81	1.118e-02	$mt1
+ $X=11.41 $Y=5.2825
Ri356	avC8#82	avC8#81	8.163e-03	$mt1
+ $X=11.41 $Y=5.235
Ri357	avC8#84	avC8#83	8.163e-03	$mt1
+ $X=11.36 $Y=5.29
Ri358	avC8#84	avC8#80	8.163e-03	$mt1
+ $X=11.41 $Y=5.2825
Ri359	avC8#84	avC8#82	1.118e-02	$mt1
+ $X=11.385 $Y=5.2585
Ri424	avC8#114	avC8#66	    0.2080	$mt1
+ $X=14.68 $Y=1.648
Ri425	avC8#114	avC8#70	    0.2987	$mt1
+ $X=14.68 $Y=1.2685
Ri434	avC8#127	avC8#126	   11.4000	$mt1
+ $X=14.975 $Y=4.8
Ri459	avC8#134	avC8#135	1.118e-02	$mt1
+ $X=16.85 $Y=5.2825
Ri460	avC8#136	avC8#135	8.163e-03	$mt1
+ $X=16.85 $Y=5.235
Ri461	avC8#137	avC8#133	8.163e-03	$mt1	$X=16.8 $Y=5.29
Ri462	avC8#137	avC8#134	8.163e-03	$mt1
+ $X=16.85 $Y=5.2825
Ri463	avC8#137	avC8#136	1.118e-02	$mt1
+ $X=16.825 $Y=5.2585
Ri479	avC8#143	avC8#144	8.163e-03	$mt1
+ $X=17.46 $Y=1.19
Ri480	avC8#146	avC8#145	8.163e-03	$mt1
+ $X=17.41 $Y=1.245
Ri481	avC8#146	avC8#143	1.294e-02	$mt1
+ $X=17.435 $Y=1.2175
Ri518	avC8#151	avC8#152	   11.4000	$mt1
+ $X=19.285 $Y=1.68
Ri559	avC8#160	avC8#156	    1.4000	$mt1
+ $X=20.515 $Y=4.8
Ri588	avC8#164	avC8#165	1.118e-02	$mt1
+ $X=22.39 $Y=5.2825
Ri589	avC8#166	avC8#165	8.163e-03	$mt1
+ $X=22.39 $Y=5.235
Ri590	avC8#167	avC8#163	8.163e-03	$mt1
+ $X=22.34 $Y=5.29
Ri591	avC8#167	avC8#164	8.163e-03	$mt1
+ $X=22.39 $Y=5.2825
Ri592	avC8#167	avC8#166	1.118e-02	$mt1
+ $X=22.365 $Y=5.2585
Ri615	avC8#173	avC8#174	8.163e-03	$mt1
+ $X=23.08 $Y=1.19
Ri616	avC8#176	avC8#175	8.163e-03	$mt1
+ $X=23.03 $Y=1.245
Ri617	avC8#176	avC8#173	1.294e-02	$mt1
+ $X=23.055 $Y=1.2175
Ri640	avC8#179	avC8#180	   11.4000	$mt1
+ $X=24.905 $Y=1.68
Ri19	avC9#2	avC9	   10.0000	$mt1	$X=-2.86 $Y=5.08
Ri20	avC9#2	avC9#3	    1.4076	$mt1	$X=-2.86 $Y=5.0375
Ri151	avC9#16	avC9#14	    0.1353	$mt1	$X=2.71 $Y=4.99
Ri152	avC9#17	avC9#16	    0.1643	$mt1
+ $X=2.78 $Y=4.915
Ri153	avC9#17	avC9#11	    1.1359	$mt1
+ $X=2.86 $Y=4.245
Ri154	avC9#17	avC9#18	7.389e-02	$mt1	$X=2.84 $Y=4.93
Ri155	avC9#16	avC9#18	3.634e-02	$mt1
+ $X=2.845 $Y=4.995
Ri168	avC9#22	avC9#27	    1.3494	$mt1	$X=3.09 $Y=2.83
Ri287	avC9#35	avC9#33	    0.1353	$mt1	$X=8.21 $Y=4.99
Ri288	avC9#36	avC9#35	    0.1643	$mt1
+ $X=8.28 $Y=4.915
Ri289	avC9#36	avC9#31	    1.1359	$mt1
+ $X=8.36 $Y=4.245
Ri290	avC9#36	avC9#37	7.389e-02	$mt1	$X=8.34 $Y=4.93
Ri291	avC9#35	avC9#37	3.634e-02	$mt1
+ $X=8.345 $Y=4.995
Ri305	avC9#41	avC9#43	    2.5257	$mt1	$X=8.57 $Y=1.49
Ri399	avC9#54	avC9#52	    0.1353	$mt1
+ $X=13.65 $Y=4.99
Ri400	avC9#55	avC9#54	    0.1643	$mt1
+ $X=13.72 $Y=4.915
Ri401	avC9#55	avC9#49	    1.1359	$mt1
+ $X=13.8 $Y=4.245
Ri402	avC9#55	avC9#56	7.389e-02	$mt1
+ $X=13.78 $Y=4.93
Ri403	avC9#54	avC9#56	3.634e-02	$mt1
+ $X=13.785 $Y=4.995
Ri435	avC9#61	avC9#60	   15.0000	$mt1
+ $X=15.62 $Y=1.93
Ri436	avC9#61	avC9#62	    1.4000	$mt1
+ $X=15.62 $Y=1.93
Ri437	avC9#64	avC9#63	   15.0000	$mt1
+ $X=15.62 $Y=0.975
Ri438	avC9#64	avC9#65	    1.4000	$mt1
+ $X=15.62 $Y=0.975
Ri513	avC9#79	avC9#74	    0.1353	$mt1
+ $X=19.19 $Y=4.99
Ri514	avC9#80	avC9#79	    0.1643	$mt1
+ $X=19.26 $Y=4.915
Ri515	avC9#80	avC9#72	    1.1359	$mt1
+ $X=19.34 $Y=4.245
Ri516	avC9#80	avC9#81	7.389e-02	$mt1
+ $X=19.32 $Y=4.93
Ri517	avC9#79	avC9#81	3.634e-02	$mt1
+ $X=19.325 $Y=4.995
Ri566	avC9#86	avC9#84	    2.7494	$mt1
+ $X=20.755 $Y=2.83
Ri686	avC9#90	avC9#92	    2.4857	$mt1
+ $X=26.23 $Y=1.49
Ri482	I337/avC10#3	I337/avC10	    1.4256	$mt1
+ $X=18.22 $Y=5.735
Ri484	I337/avC10#3	I337/avC10#2	   15.0000	$mt1
+ $X=18.22 $Y=5.69
Ri506	I337/avC10#8	I337/avC10#7	    0.1093	$mt1
+ $X=19.06 $Y=4.35
Ri508	I337/avC10#8	I337/avC10#11	9.333e-02	$mt1
+ $X=19.05 $Y=4.35
Ri509	I337/avC10#8	I337/avC10#9	    7.5000	$mt1
+ $X=19.06 $Y=4.35
Ri543	I337/avC10#13	I337/avC10#15	    0.4367	$mt1	$X=20 $Y=5.333
Ri544	I337/avC10#15	I337/avC10#16	    0.6200	$mt1	$X=20 $Y=4.8135
Ri545	I337/avC10#16	I337/avC10#17	2.615e-02	$mt1	$X=20 $Y=4.15
Ri547	I337/avC10#13	I337/avC10#12	   15.0000	$mt1	$X=20 $Y=5.735
Ri548	I337/avC10#16	I337/avC10#18	    5.0000	$mt1	$X=20 $Y=4.15
Ri556	I337/I0/avC9	I337/I0/avC9#7	2.667e-03	$mt1
+ $X=20.4325 $Y=4.145
Ri574	I337/I0/avC9#10	I337/I0/avC9#11	2.667e-03	$mt1
+ $X=21.3475 $Y=4.145
Ri576	I337/I0/avC9#10	I337/I0/avC9#12	    5.0000	$mt1
+ $X=21.36 $Y=4.15
Ri582	I337/I0/avC7#9	I337/I0/avC7#7	    0.5283	$mt1
+ $X=22.16 $Y=4.51
Ri583	I337/I0/avC7#9	I337/I0/avC7	    5.4073	$mt1
+ $X=21.76 $Y=5.08
Ri584	I337/I0/avC7#11	I337/I0/avC7#9	    0.4750	$mt1
+ $X=22.02 $Y=5.3325
Ri586	I337/I0/avC7#7	I337/I0/avC7#6	   15.0000	$mt1	$X=22.3 $Y=4.33
Ri587	I337/I0/avC7#11	I337/I0/avC7#10	   15.0000	$mt1
+ $X=22.3 $Y=5.645
Ri373	I338/avC10#3	I338/avC10	    1.4256	$mt1
+ $X=12.68 $Y=5.735
Ri375	I338/avC10#3	I338/avC10#2	   15.0000	$mt1
+ $X=12.68 $Y=5.69
Ri392	I338/avC10#8	I338/avC10#7	    0.1093	$mt1
+ $X=13.52 $Y=4.35
Ri394	I338/avC10#8	I338/avC10#11	9.333e-02	$mt1
+ $X=13.51 $Y=4.35
Ri395	I338/avC10#8	I338/avC10#9	    7.5000	$mt1
+ $X=13.52 $Y=4.35
Ri416	I338/avC10#13	I338/avC10#15	    0.4367	$mt1
+ $X=14.46 $Y=5.333
Ri417	I338/avC10#15	I338/avC10#16	    0.6200	$mt1
+ $X=14.46 $Y=4.8135
Ri418	I338/avC10#16	I338/avC10#17	2.615e-02	$mt1
+ $X=14.46 $Y=4.15
Ri420	I338/avC10#13	I338/avC10#12	   15.0000	$mt1
+ $X=14.46 $Y=5.735
Ri421	I338/avC10#16	I338/avC10#18	    5.0000	$mt1
+ $X=14.46 $Y=4.15
Ri431	I338/I0/avC9	I338/I0/avC9#7	2.667e-03	$mt1
+ $X=14.8925 $Y=4.145
Ri445	I338/I0/avC9#10	I338/I0/avC9#11	2.667e-03	$mt1
+ $X=15.8075 $Y=4.145
Ri447	I338/I0/avC9#10	I338/I0/avC9#12	    5.0000	$mt1
+ $X=15.82 $Y=4.15
Ri453	I338/I0/avC7#9	I338/I0/avC7#7	    0.5283	$mt1
+ $X=16.62 $Y=4.51
Ri454	I338/I0/avC7#9	I338/I0/avC7	    5.4073	$mt1
+ $X=16.22 $Y=5.08
Ri455	I338/I0/avC7#11	I338/I0/avC7#9	    0.4750	$mt1
+ $X=16.48 $Y=5.3325
Ri457	I338/I0/avC7#7	I338/I0/avC7#6	   15.0000	$mt1
+ $X=16.76 $Y=4.33
Ri458	I338/I0/avC7#11	I338/I0/avC7#10	   15.0000	$mt1
+ $X=16.76 $Y=5.645
Ri242	I339/avC10#3	I339/avC10	    1.4256	$mt1
+ $X=7.24 $Y=5.735
Ri244	I339/avC10#3	I339/avC10#2	   15.0000	$mt1	$X=7.24 $Y=5.69
Ri274	I339/avC10#8	I339/avC10#7	    0.1093	$mt1	$X=8.08 $Y=4.35
Ri276	I339/avC10#8	I339/avC10#11	9.333e-02	$mt1	$X=8.07 $Y=4.35
Ri277	I339/avC10#8	I339/avC10#9	    7.5000	$mt1	$X=8.08 $Y=4.35
Ri307	I339/avC10#14	I339/avC10#16	    0.4367	$mt1
+ $X=9.02 $Y=5.333
Ri308	I339/avC10#16	I339/avC10#17	    0.6200	$mt1
+ $X=9.02 $Y=4.8135
Ri309	I339/avC10#17	I339/avC10#12	2.615e-02	$mt1	$X=9.02 $Y=4.15
Ri311	I339/avC10#14	I339/avC10#13	   15.0000	$mt1
+ $X=9.02 $Y=5.735
Ri312	I339/avC10#17	I339/avC10#18	    5.0000	$mt1	$X=9.02 $Y=4.15
Ri321	I339/I0/avC9	I339/I0/avC9#7	2.667e-03	$mt1
+ $X=9.4525 $Y=4.145
Ri335	I339/I0/avC9#11	I339/I0/avC9#10	2.667e-03	$mt1
+ $X=10.3675 $Y=4.145
Ri337	I339/I0/avC9#11	I339/I0/avC9#12	    5.0000	$mt1
+ $X=10.38 $Y=4.15
Ri344	I339/I0/avC7#9	I339/I0/avC7#7	    0.5283	$mt1
+ $X=11.18 $Y=4.51
Ri345	I339/I0/avC7#9	I339/I0/avC7	    5.4073	$mt1
+ $X=10.78 $Y=5.08
Ri346	I339/I0/avC7#11	I339/I0/avC7#9	    0.4750	$mt1
+ $X=11.04 $Y=5.3325
Ri348	I339/I0/avC7#7	I339/I0/avC7#6	   15.0000	$mt1
+ $X=11.32 $Y=4.33
Ri349	I339/I0/avC7#11	I339/I0/avC7#10	   15.0000	$mt1
+ $X=11.32 $Y=5.645
Ri107	I340/avC10#3	I340/avC10	    1.4256	$mt1
+ $X=1.74 $Y=5.735
Ri109	I340/avC10#3	I340/avC10#2	   15.0000	$mt1	$X=1.74 $Y=5.69
Ri141	I340/avC10#8	I340/avC10#7	    0.1093	$mt1	$X=2.58 $Y=4.35
Ri143	I340/avC10#8	I340/avC10#11	9.333e-02	$mt1	$X=2.57 $Y=4.35
Ri144	I340/avC10#8	I340/avC10#9	    7.5000	$mt1	$X=2.58 $Y=4.35
Ri171	I340/avC10#13	I340/avC10#15	    0.4367	$mt1
+ $X=3.52 $Y=5.333
Ri172	I340/avC10#15	I340/avC10#16	    0.6200	$mt1
+ $X=3.52 $Y=4.8135
Ri173	I340/avC10#16	I340/avC10#17	2.615e-02	$mt1	$X=3.52 $Y=4.15
Ri175	I340/avC10#13	I340/avC10#12	   15.0000	$mt1
+ $X=3.52 $Y=5.735
Ri176	I340/avC10#16	I340/avC10#18	    5.0000	$mt1	$X=3.52 $Y=4.15
Ri178	I340/I0/avC9	I340/I0/avC9#7	2.667e-03	$mt1
+ $X=3.9525 $Y=4.145
Ri192	I340/I0/avC9#11	I340/I0/avC9#10	2.667e-03	$mt1
+ $X=4.8675 $Y=4.145
Ri194	I340/I0/avC9#11	I340/I0/avC9#12	    5.0000	$mt1
+ $X=4.88 $Y=4.15
Ri215	I340/I0/avC7#9	I340/I0/avC7#7	    0.5283	$mt1	$X=5.68 $Y=4.51
Ri216	I340/I0/avC7#9	I340/I0/avC7	    5.4073	$mt1	$X=5.28 $Y=5.08
Ri217	I340/I0/avC7#11	I340/I0/avC7#9	    0.4750	$mt1
+ $X=5.54 $Y=5.3325
Ri219	I340/I0/avC7#7	I340/I0/avC7#6	   15.0000	$mt1	$X=5.82 $Y=4.33
Ri220	I340/I0/avC7#11	I340/I0/avC7#10	   15.0000	$mt1
+ $X=5.82 $Y=5.645
Ri1	I341/avC10#3	I341/avC10	    1.4256	$mt1
+ $X=-3.66 $Y=5.735
Ri3	I341/avC10#3	I341/avC10#2	   15.0000	$mt1
+ $X=-3.66 $Y=5.69
Ri15	I341/avC10#8	I341/avC10#7	    0.1093	$mt1
+ $X=-2.82 $Y=4.35
Ri17	I341/avC10#8	I341/avC10#11	9.333e-02	$mt1
+ $X=-2.83 $Y=4.35
Ri18	I341/avC10#8	I341/avC10#9	    7.5000	$mt1
+ $X=-2.82 $Y=4.35
Ri38	I341/avC10#13	I341/avC10#15	    0.4367	$mt1
+ $X=-1.88 $Y=5.333
Ri39	I341/avC10#15	I341/avC10#16	    0.6200	$mt1
+ $X=-1.88 $Y=4.8135
Ri40	I341/avC10#16	I341/avC10#17	2.615e-02	$mt1
+ $X=-1.88 $Y=4.15
Ri42	I341/avC10#13	I341/avC10#12	   15.0000	$mt1
+ $X=-1.88 $Y=5.735
Ri43	I341/avC10#16	I341/avC10#18	    5.0000	$mt1
+ $X=-1.88 $Y=4.15
Ri45	I341/I0/avC9	I341/I0/avC9#7	2.667e-03	$mt1
+ $X=-1.4475 $Y=4.145
Ri65	I341/I0/avC9#10	I341/I0/avC9#11	2.667e-03	$mt1
+ $X=-0.5325 $Y=4.145
Ri67	I341/I0/avC9#10	I341/I0/avC9#12	    5.0000	$mt1
+ $X=-0.52 $Y=4.15
Ri79	I341/I0/avC7#9	I341/I0/avC7#7	    0.5283	$mt1	$X=0.28 $Y=4.51
Ri80	I341/I0/avC7#9	I341/I0/avC7	    5.4073	$mt1
+ $X=-0.12 $Y=5.08
Ri81	I341/I0/avC7#11	I341/I0/avC7#9	    0.4750	$mt1
+ $X=0.14 $Y=5.3325
Ri83	I341/I0/avC7#7	I341/I0/avC7#6	   15.0000	$mt1	$X=0.42 $Y=4.33
Ri84	I341/I0/avC7#11	I341/I0/avC7#10	   15.0000	$mt1
+ $X=0.42 $Y=5.645
Ri654	I336/avC10	I336/avC10#2	2.615e-02	$mt1
+ $X=25.42 $Y=2.317
Ri656	I336/avC10	I336/avC10#5	    0.6200	$mt1
+ $X=25.42 $Y=1.6855
Ri657	I336/avC10#7	I336/avC10#5	    0.4367	$mt1
+ $X=25.42 $Y=1.148
Ri659	I336/avC10	I336/avC10#3	    5.0000	$mt1
+ $X=25.42 $Y=2.33
Ri660	I336/avC10#7	I336/avC10#6	   15.0000	$mt1
+ $X=25.42 $Y=0.745
Ri679	I336/avC10#11	I336/avC10#10	    0.1093	$mt1
+ $X=26.36 $Y=2.13
Ri681	I336/avC10#11	I336/avC10#9	9.333e-02	$mt1
+ $X=26.37 $Y=2.2225
Ri682	I336/avC10#11	I336/avC10#12	    7.5000	$mt1
+ $X=26.36 $Y=2.13
Ri700	I336/avC10#18	I336/avC10#17	   15.0000	$mt1	$X=27.2 $Y=0.79
Ri701	I336/avC10#18	I336/avC10#16	2.560e-02	$mt1	$X=27.2 $Y=0.79
Ri623	I336/I0/avC9	I336/I0/avC9#4	2.667e-03	$mt1
+ $X=24.0725 $Y=2.33
Ri624	I336/I0/avC9	I336/I0/avC9#2	    5.0000	$mt1
+ $X=24.06 $Y=2.33
Ri642	I336/I0/avC9#5	I336/I0/avC9#8	2.667e-03	$mt1
+ $X=24.9875 $Y=2.33
Ri625	I336/I0/avC7#2	I336/I0/avC7	    5.4073	$mt1
+ $X=23.6605 $Y=1.4
Ri626	I336/I0/avC7#2	I336/I0/avC7#3	    0.5283	$mt1
+ $X=23.4 $Y=1.685
Ri628	I336/I0/avC7#7	I336/I0/avC7#2	    0.4750	$mt1
+ $X=23.4 $Y=1.1475
Ri630	I336/I0/avC7#3	I336/I0/avC7#4	   15.0000	$mt1
+ $X=23.12 $Y=2.15
Ri631	I336/I0/avC7#7	I336/I0/avC7#6	   15.0000	$mt1
+ $X=23.12 $Y=0.835
Ri535	I335/avC10	I335/avC10#2	2.615e-02	$mt1
+ $X=19.8 $Y=2.317
Ri537	I335/avC10	I335/avC10#5	    0.6200	$mt1
+ $X=19.8 $Y=1.6855
Ri538	I335/avC10#7	I335/avC10#5	    0.4367	$mt1
+ $X=19.8 $Y=1.148
Ri540	I335/avC10	I335/avC10#3	    5.0000	$mt1	$X=19.8 $Y=2.33
Ri541	I335/avC10#7	I335/avC10#6	   15.0000	$mt1
+ $X=19.8 $Y=0.745
Ri560	I335/avC10#10	I335/avC10#9	    0.1093	$mt1
+ $X=20.74 $Y=2.13
Ri562	I335/avC10#10	I335/avC10#13	    1.4933	$mt1
+ $X=20.75 $Y=2.2225
Ri563	I335/avC10#10	I335/avC10#11	    7.5000	$mt1
+ $X=20.74 $Y=2.13
Ri577	I335/avC10#17	I335/avC10#16	   15.0000	$mt1
+ $X=21.58 $Y=0.79
Ri578	I335/avC10#17	I335/avC10#18	    1.4256	$mt1
+ $X=21.58 $Y=0.79
Ri488	I335/I0/avC9	I335/I0/avC9#4	2.667e-03	$mt1
+ $X=18.4525 $Y=2.33
Ri489	I335/I0/avC9	I335/I0/avC9#2	    5.0000	$mt1
+ $X=18.44 $Y=2.33
Ri520	I335/I0/avC9#6	I335/I0/avC9#5	2.667e-03	$mt1
+ $X=19.3675 $Y=2.33
Ri499	I335/I0/avC7#2	I335/I0/avC7	    5.4073	$mt1
+ $X=18.0405 $Y=1.4
Ri500	I335/I0/avC7#2	I335/I0/avC7#3	    0.5283	$mt1
+ $X=17.78 $Y=1.685
Ri502	I335/I0/avC7#7	I335/I0/avC7#2	    0.4750	$mt1
+ $X=17.78 $Y=1.1475
Ri504	I335/I0/avC7#3	I335/I0/avC7#4	   15.0000	$mt1	$X=17.5 $Y=2.15
Ri505	I335/I0/avC7#7	I335/I0/avC7#6	   15.0000	$mt1
+ $X=17.5 $Y=0.835
Ri267	I331/avC10	I331/avC10#2	2.615e-02	$mt1
+ $X=7.76 $Y=2.317
Ri269	I331/avC10	I331/avC10#5	    0.6200	$mt1
+ $X=7.76 $Y=1.6855
Ri270	I331/avC10#7	I331/avC10#5	    0.4367	$mt1
+ $X=7.76 $Y=1.148
Ri272	I331/avC10	I331/avC10#3	    5.0000	$mt1	$X=7.76 $Y=2.33
Ri273	I331/avC10#7	I331/avC10#6	   15.0000	$mt1
+ $X=7.76 $Y=0.745
Ri293	I331/avC10#10	I331/avC10#9	    0.1093	$mt1	$X=8.7 $Y=2.13
Ri295	I331/avC10#10	I331/avC10#13	    1.4933	$mt1
+ $X=8.71 $Y=2.2225
Ri296	I331/avC10#10	I331/avC10#11	    7.5000	$mt1	$X=8.7 $Y=2.13
Ri324	I331/avC10#17	I331/avC10#16	   15.0000	$mt1	$X=9.54 $Y=0.79
Ri325	I331/avC10#17	I331/avC10#18	    1.4256	$mt1	$X=9.54 $Y=0.79
Ri233	I331/I0/avC9	I331/I0/avC9#4	2.667e-03	$mt1
+ $X=6.4125 $Y=2.33
Ri234	I331/I0/avC9	I331/I0/avC9#2	    5.0000	$mt1	$X=6.4 $Y=2.33
Ri249	I331/I0/avC9#6	I331/I0/avC9#5	2.667e-03	$mt1
+ $X=7.3275 $Y=2.33
Ri235	I331/I0/avC7#2	I331/I0/avC7	    5.4073	$mt1
+ $X=6.0005 $Y=1.4
Ri236	I331/I0/avC7#2	I331/I0/avC7#3	    0.5283	$mt1
+ $X=5.74 $Y=1.685
Ri238	I331/I0/avC7#7	I331/I0/avC7#2	    0.4750	$mt1
+ $X=5.74 $Y=1.1475
Ri240	I331/I0/avC7#3	I331/I0/avC7#4	   15.0000	$mt1	$X=5.46 $Y=2.15
Ri241	I331/I0/avC7#7	I331/I0/avC7#6	   15.0000	$mt1
+ $X=5.46 $Y=0.835
Ri131	I330/avC10	I330/avC10#2	2.615e-02	$mt1
+ $X=2.135 $Y=2.317
Ri133	I330/avC10	I330/avC10#5	    0.6200	$mt1
+ $X=2.135 $Y=1.6855
Ri134	I330/avC10#7	I330/avC10#5	    0.4367	$mt1
+ $X=2.135 $Y=1.148
Ri136	I330/avC10	I330/avC10#3	    5.0000	$mt1
+ $X=2.135 $Y=2.33
Ri137	I330/avC10#7	I330/avC10#6	   15.0000	$mt1
+ $X=2.135 $Y=0.745
Ri156	I330/avC10#10	I330/avC10#9	    0.1093	$mt1
+ $X=3.075 $Y=2.13
Ri158	I330/avC10#10	I330/avC10#13	    1.4933	$mt1
+ $X=3.085 $Y=2.2225
Ri159	I330/avC10#10	I330/avC10#11	    7.5000	$mt1
+ $X=3.075 $Y=2.13
Ri181	I330/avC10#17	I330/avC10#16	   15.0000	$mt1
+ $X=3.915 $Y=0.79
Ri182	I330/avC10#17	I330/avC10#18	    1.4256	$mt1
+ $X=3.915 $Y=0.79
Ri97	I330/I0/avC9	I330/I0/avC9#4	2.667e-03	$mt1
+ $X=0.7875 $Y=2.33
Ri98	I330/I0/avC9	I330/I0/avC9#2	    5.0000	$mt1
+ $X=0.775 $Y=2.33
Ri113	I330/I0/avC9#6	I330/I0/avC9#5	2.667e-03	$mt1
+ $X=1.7025 $Y=2.33
Ri99	I330/I0/avC7#2	I330/I0/avC7	    5.4073	$mt1
+ $X=0.3755 $Y=1.4
Ri100	I330/I0/avC7#2	I330/I0/avC7#3	    0.5283	$mt1
+ $X=0.115 $Y=1.685
Ri102	I330/I0/avC7#7	I330/I0/avC7#2	    0.4750	$mt1
+ $X=0.115 $Y=1.1475
Ri104	I330/I0/avC7#3	I330/I0/avC7#4	   15.0000	$mt1
+ $X=-0.165 $Y=2.15
Ri105	I330/I0/avC7#7	I330/I0/avC7#6	   15.0000	$mt1
+ $X=-0.165 $Y=0.835
Rj19	9_B0#3	9_B0#4	   50.0688	$poly	$X=-0.595 $Y=1.7055
Rj20	9_B0#4	9_B0	   11.0694	$poly	$X=-0.595 $Y=1.4
Rj21	9_B0#4	9_B0#6	   43.5688	$poly	$X=-0.595 $Y=1.1275
Rj250	9_B0#20	9_B0#21	   34.0931	$poly
+ $X=26.99 $Y=4.567
Rj251	9_B0#21	9_B0#22	   98.4119	$poly
+ $X=26.73 $Y=4.875
Rj252	9_B0#21	9_B0#18	   16.3706	$poly
+ $X=27.0525 $Y=4.825
Rj61	avC11	avC11#2	   50.0688	$poly	$X=5.03 $Y=1.7055
Rj62	avC11#2	avC11#3	   11.0694	$poly	$X=5.03 $Y=1.4
Rj63	avC11#2	avC11#4	   43.5688	$poly
+ $X=5.03 $Y=1.1275
Rj174	avC13#11	avC13#12	   50.0688	$poly
+ $X=17.07 $Y=1.7055
Rj175	avC13#12	avC13#13	   11.0694	$poly	$X=17.07 $Y=1.4
Rj176	avC13#12	avC13#14	   43.5688	$poly
+ $X=17.07 $Y=1.1275
Rj216	avC16	avC16#2	   50.0688	$poly	$X=22.69 $Y=1.7055
Rj217	avC16#2	avC16#3	   11.0694	$poly	$X=22.69 $Y=1.4
Rj218	avC16#2	avC16#4	   43.5688	$poly
+ $X=22.69 $Y=1.1275
Rj237	avC18	avC18#2	   32.0044	$poly	$X=26.05 $Y=5.263
Rj238	avC18#2	avC18#3	  122.4997	$poly
+ $X=25.58 $Y=5.04
Rj239	avC18#2	avC18#4	   37.5044	$poly	$X=26.05 $Y=4.8
Rj240	avC18#2	avC18#5	   12.9576	$poly
+ $X=26.05 $Y=5.045
Rj34	avC10	avC10#2	   11.0694	$poly	$X=0.975 $Y=5.08
Rj35	avC10#2	avC10#3	   50.0688	$poly
+ $X=0.85 $Y=4.775
Rj36	avC10#2	avC10#4	   43.5688	$poly
+ $X=0.85 $Y=5.3525
Rj4	avC6#10	avC6#11	   36.5688	$poly
+ $X=-2.98 $Y=1.638
Rj5	avC6#11	avC6#12	   11.0694	$poly	$X=-2.98 $Y=1.4
Rj6	avC6#11	avC6#13	   50.0688	$poly
+ $X=-2.98 $Y=1.095
Rj72	avC12	avC12#2	   11.0694	$poly	$X=6.375 $Y=5.08
Rj73	avC12#2	avC12#3	   50.0688	$poly
+ $X=6.25 $Y=4.775
Rj74	avC12#2	avC12#4	   43.5688	$poly
+ $X=6.25 $Y=5.3525
Rj109	avC14	avC14#2	   11.0694	$poly	$X=11.875 $Y=5.08
Rj110	avC14#2	avC14#3	   50.0688	$poly
+ $X=11.75 $Y=4.775
Rj111	avC14#2	avC14#4	   43.5688	$poly
+ $X=11.75 $Y=5.3525
Rj177	avC15	avC15#2	   11.0694	$poly	$X=17.315 $Y=5.08
Rj178	avC15#2	avC15#3	   50.0688	$poly
+ $X=17.19 $Y=4.775
Rj179	avC15#2	avC15#4	   43.5688	$poly
+ $X=17.19 $Y=5.3525
Rj219	avC17	avC17#2	   11.0694	$poly	$X=22.855 $Y=5.08
Rj220	avC17#2	avC17#3	   50.0688	$poly
+ $X=22.73 $Y=4.775
Rj221	avC17#2	avC17#4	   43.5688	$poly
+ $X=22.73 $Y=5.3525
Rj10	avC7	avC7#11	   45.5688	$poly	$X=-1.98 $Y=1.768
Rj11	avC7#11	avC7#2	   16.0694	$poly	$X=-2.0675 $Y=1.485
Rj12	avC7#11	avC7#12	   39.0688	$poly
+ $X=-1.98 $Y=1.235
Rj224	I334/avC7	I334/avC7#2	   36.6026	$poly
+ $X=23.95 $Y=5.263
Rj244	I334/avC7#16	I334/avC7#17	  117.4076	$poly
+ $X=26.16 $Y=3.405
Rj245	I334/avC7#17	I334/avC7#6	   84.6387	$poly
+ $X=25.03 $Y=3.4325
Rj246	I334/avC7#17	I334/avC7#18	   26.4473	$poly
+ $X=25.63 $Y=3.6325
Rj229	I334/avC6	I334/avC6#2	  106.1308	$poly
+ $X=24.56 $Y=4.01
Rj230	I334/avC6#2	I334/avC6#3	   90.0000	$poly
+ $X=24.17 $Y=4.9295
Rj14	CLK#4	CLK#1	   11.2198	$poly	$X=-2.1575 $Y=5.295
Rj26	CLK#12	CLK#13	   33.2297	$poly	$X=-0.375 $Y=1.8425
Rj29	CLK#21	CLK#16	   33.2297	$poly	$X=0.63 $Y=4.647
Rj45	CLK#29	CLK#23	   11.2198	$poly	$X=2.4125 $Y=1.185
Rj53	CLK#35	CLK#32	   11.2198	$poly	$X=3.2425 $Y=5.295
Rj68	CLK#43	CLK#44	   33.2297	$poly	$X=5.25 $Y=1.8425
Rj71	CLK#46	CLK#47	   33.2297	$poly	$X=6.03 $Y=4.647
Rj90	CLK#61	CLK#56	   11.2198	$poly	$X=8.0375 $Y=1.185
Rj95	CLK#67	CLK#64	   11.2198	$poly	$X=8.7425 $Y=5.295
Rj108	CLK#79	CLK#74	   33.2297	$poly	$X=11.53 $Y=4.647
Rj123	CLK#87	CLK#83	    1.9339	$poly	$X=12.37 $Y=1.655
Rj124	CLK#83	CLK#93	    1.8663	$poly	$X=12.3695 $Y=1.4
Rj159	CLK#127	CLK#84	   11.2198	$poly	$X=14.1825 $Y=5.295
Rj173	CLK#130	CLK#131	   33.2297	$poly
+ $X=16.97 $Y=4.647
Rj180	CLK#145	CLK#147	   33.2297	$poly
+ $X=17.29 $Y=1.8425
Rj196	CLK#154	CLK#150	   11.2198	$poly
+ $X=19.7225 $Y=5.295
Rj200	CLK#157	CLK#151	   11.2198	$poly
+ $X=20.0775 $Y=1.185
Rj215	CLK#161	CLK#162	   33.2297	$poly
+ $X=22.51 $Y=4.647
Rj222	CLK#176	CLK#177	   33.2297	$poly
+ $X=22.91 $Y=1.8425
Rj236	CLK#180	CLK#183	   21.2198	$poly
+ $X=25.6975 $Y=1.185
Rj1	Set#6	Set#7	   52.0688	$poly	$X=-3.45 $Y=5.3255
Rj2	Set#7	Set#4	   13.3194	$poly	$X=-3.51 $Y=5.01
Rj3	Set#7	Set#8	   35.0688	$poly	$X=-3.45 $Y=4.78
Rj37	Set#14	Set#15	   52.0688	$poly	$X=1.95 $Y=5.3255
Rj38	Set#15	Set#12	   13.3194	$poly	$X=1.89 $Y=5.01
Rj39	Set#15	Set#16	   35.0688	$poly	$X=1.95 $Y=4.78
Rj55	Set#17	Set#18	   13.3194	$poly	$X=3.875 $Y=1.47
Rj56	Set#18	Set#19	   52.0688	$poly	$X=3.705 $Y=1.155
Rj57	Set#18	Set#20	   35.0688	$poly	$X=3.705 $Y=1.7
Rj79	Set#30	Set#31	   52.0688	$poly	$X=7.45 $Y=5.3255
Rj80	Set#31	Set#28	   13.3194	$poly	$X=7.39 $Y=5.01
Rj81	Set#31	Set#32	   35.0688	$poly	$X=7.45 $Y=4.78
Rj97	Set#33	Set#36	   13.3194	$poly	$X=9.5 $Y=1.47
Rj98	Set#36	Set#37	   52.0688	$poly	$X=9.33 $Y=1.155
Rj99	Set#36	Set#38	   35.0688	$poly	$X=9.33 $Y=1.7
Rj112	Set#46	Set#47	   52.0688	$poly	$X=12.89 $Y=5.3255
Rj113	Set#47	Set#44	   13.3194	$poly	$X=12.83 $Y=5.01
Rj114	Set#47	Set#48	   35.0688	$poly	$X=12.89 $Y=4.78
Rj182	Set#62	Set#63	   52.0688	$poly	$X=18.43 $Y=5.3255
Rj183	Set#63	Set#60	   13.3194	$poly	$X=18.37 $Y=5.01
Rj184	Set#63	Set#64	   35.0688	$poly	$X=18.43 $Y=4.78
Rj211	Set#65	Set#66	   13.3194	$poly	$X=21.54 $Y=1.47
Rj212	Set#66	Set#67	   52.0688	$poly	$X=21.37 $Y=1.155
Rj213	Set#66	Set#68	   35.0688	$poly	$X=21.37 $Y=1.7
Rj247	Set#73	Set#74	   13.3194	$poly	$X=27.16 $Y=1.47
Rj248	Set#74	Set#75	   52.0688	$poly	$X=26.99 $Y=1.155
Rj249	Set#74	Set#76	   35.0688	$poly	$X=26.99 $Y=1.7
Rj16	avC8	avC8#3	   22.6608	$poly	$X=-1.5525 $Y=4.8
Rj27	avC8#8	avC8#11	   33.2297	$poly	$X=-0.375 $Y=1.0225
Rj28	avC8#18	avC8#15	   33.2297	$poly
+ $X=0.63 $Y=5.448
Rj41	avC8#26	avC8#25	   22.6608	$poly
+ $X=1.8075 $Y=1.68
Rj58	avC8#29	avC8#31	   22.6608	$poly
+ $X=3.8475 $Y=4.8
Rj69	avC8#38	avC8#41	   33.2297	$poly
+ $X=5.25 $Y=1.0225
Rj70	avC8#42	avC8#43	   33.2297	$poly
+ $X=6.03 $Y=5.448
Rj83	avC8#56	avC8#55	   22.6608	$poly
+ $X=7.4325 $Y=1.68
Rj100	avC8#59	avC8#61	   22.6608	$poly
+ $X=9.3475 $Y=4.8
Rj107	avC8#85	avC8#83	   33.2297	$poly
+ $X=11.53 $Y=5.448
Rj161	avC8#126	avC8#128	   22.6608	$poly
+ $X=14.7875 $Y=4.8
Rj172	avC8#132	avC8#133	   33.2297	$poly
+ $X=16.97 $Y=5.448
Rj181	avC8#144	avC8#147	   33.2297	$poly
+ $X=17.29 $Y=1.0225
Rj193	avC8#153	avC8#152	   22.6608	$poly
+ $X=19.4725 $Y=1.68
Rj201	avC8#156	avC8#157	   32.6608	$poly
+ $X=20.3275 $Y=4.8
Rj214	avC8#162	avC8#163	   33.2297	$poly
+ $X=22.51 $Y=5.448
Rj223	avC8#174	avC8#177	   33.2297	$poly
+ $X=22.91 $Y=1.0225
Rj232	avC8#184	avC8#180	   22.6608	$poly
+ $X=25.0925 $Y=1.68
Rj7	avC9	avC9#6	    3.3194	$poly	$X=-2.86 $Y=5.08
Rj8	avC9#6	avC9#7	   42.0688	$poly	$X=-3.03 $Y=4.815
Rj9	avC9#6	avC9#8	   45.0688	$poly	$X=-3.03 $Y=5.36
Rj46	avC9#14	avC9#19	   13.3194	$poly	$X=2.54 $Y=5.08
Rj47	avC9#19	avC9#20	   42.0688	$poly
+ $X=2.37 $Y=4.815
Rj48	avC9#19	avC9#21	   45.0688	$poly	$X=2.37 $Y=5.36
Rj49	avC9#25	avC9#26	   42.0688	$poly
+ $X=3.285 $Y=1.6655
[...]
C6043	Set#9	gnd!	3.46476e-18	$X=1.408 $Y=4.991
C6044	I330/I0/avC8	gnd!	1.55809e-16	$X=2.312 $Y=0.743
C6045	avC8#24	gnd!	6.75694e-18	$X=1.595 $Y=1.5695
C6046	I330/I0/avC9#5	gnd!	3.71192e-18	$X=1.6395 $Y=2.3405
C6047	vdd!#9	gnd!	1.95664e-18	$X=1.748 $Y=4.281
C6048	I340/avC10	gnd!	9.88116e-19	$X=1.757 $Y=5.738
C6049	I330/avC10#2	gnd!	1.59212e-18	$X=2.3085 $Y=2.105
C6050	avC9#11	gnd!	1.99291e-18	$X=2.4305 $Y=3.678
C6051	CLK#24	gnd!	1.06686e-18	$X=2.541 $Y=1.2535
C6052	I340/avC10#11	gnd!	5.05479e-18	$X=2.721 $Y=4.293
C6053	I340/avC10#7	gnd!	6.42685e-19	$X=2.585 $Y=4.552
C6054	vdd!#13	gnd!	5.3056e-19	$X=2.5865 $Y=5.6855
C6055	vdd!#18	gnd!	2.23639e-17	$X=3.0885 $Y=0.789
C6056	I330/avC10#9	gnd!	1.40846e-18	$X=3.085 $Y=1.962
C6057	I330/avC10#13	gnd!	4.34675e-18	$X=2.9645 $Y=2.282
C6058	CLK#33	gnd!	9.83105e-19	$X=3.133 $Y=5.2195
C6059	avC9#22	gnd!	1.75712e-18	$X=3.265 $Y=2.7895
C6060	I340/avC10#17	gnd!	1.90139e-18	$X=3.381 $Y=4.244
C6061	I330/avC10#18	gnd!	2.41524e-17	$X=3.919 $Y=0.734
C6062	vdd!#23	gnd!	1.62791e-18	$X=3.9215 $Y=2.193
C6063	I340/I0/avC9#7	gnd!	3.2392e-18	$X=4.063 $Y=4.1285
C6064	avC8#30	gnd!	1.02304e-18	$X=4.1015 $Y=4.897
C6065	Set#22	gnd!	4.91026e-18	$X=4.525 $Y=1.4805
C6066	I340/I0/avC9#10	gnd!	5.75737e-18	$X=4.796 $Y=4.1365
C6067	avC8#39	gnd!	3.34133e-18	$X=5.373 $Y=1.2605
C6068	CLK#39	gnd!	4.09927e-18	$X=5.3745 $Y=1.5535
C6069	CLK#52	gnd!	6.6017e-19	$X=5.9115 $Y=4.9405
C6070	avC8#45	gnd!	2.2911e-21	$X=5.9165 $Y=5.222
C6071	I331/I0/avC9#4	gnd!	3.58254e-18	$X=6.5165 $Y=2.3285
C6072	Set#25	gnd!	3.32568e-18	$X=6.901 $Y=4.991
C6073	I331/I0/avC8	gnd!	1.55909e-16	$X=7.825 $Y=0.743
C6074	vdd!#25	gnd!	2.6696e-18	$X=7.2435 $Y=4.281
C6075	I339/avC10	gnd!	9.94934e-19	$X=7.25 $Y=5.738
C6076	avC8#54	gnd!	6.42937e-18	$X=7.207 $Y=1.5695
C6077	I331/I0/avC9#5	gnd!	3.73899e-18	$X=7.25 $Y=2.3405
C6078	avC9#31	gnd!	1.18684e-18	$X=8.07 $Y=3.645
C6079	I331/avC10#2	gnd!	1.49697e-18	$X=7.9245 $Y=2.105
C6080	I339/avC10#11	gnd!	5.82449e-18	$X=8.2115 $Y=4.293
C6081	I339/avC10#7	gnd!	6.42685e-19	$X=8.0815 $Y=4.552
C6082	vdd!#29	gnd!	5.3056e-19	$X=8.0825 $Y=5.6855
C6083	CLK#57	gnd!	6.34721e-19	$X=8.1595 $Y=1.2535
C6084	CLK#65	gnd!	8.68083e-19	$X=8.6265 $Y=5.2195
C6085	avC9#43	gnd!	8.18883e-19	$X=8.595 $Y=2.834
C6086	vdd!#34	gnd!	2.32396e-17	$X=8.7045 $Y=0.789
C6087	I331/avC10#9	gnd!	1.07151e-18	$X=8.7035 $Y=1.962
C6088	I331/avC10#13	gnd!	3.29407e-18	$X=8.583 $Y=2.282
C6089	I339/avC10#12	gnd!	4.12425e-18	$X=8.8685 $Y=4.244
C6090	avC13#8	gnd!	2.4282e-18	$X=9.1295 $Y=2.815
C6091	I339/I0/avC9#7	gnd!	4.57722e-18	$X=9.549 $Y=4.1285
C6092	avC8#60	gnd!	6.83711e-19	$X=9.589 $Y=4.897
C6093	I331/avC10#18	gnd!	3.50276e-17	$X=9.5375 $Y=0.734
C6094	Set#35	gnd!	1.01358e-17	$X=9.8175 $Y=1.5805
C6095	CLK#72	gnd!	1.05289e-17	$X=10.888 $Y=1.495
C6096	I339/I0/avC9#10	gnd!	4.92665e-18	$X=10.282 $Y=4.1365
C6097	CLK#78	gnd!	1.4979e-18	$X=11.41 $Y=4.9285
C6098	avC8#81	gnd!	2.24945e-21	$X=11.4135 $Y=5.222
C6099	Set#41	gnd!	2.41091e-18	$X=12.334 $Y=4.991
C6100	I338/avC10	gnd!	9.48089e-19	$X=12.6835 $Y=5.738
C6101	avC9#49	gnd!	1.67136e-18	$X=13.347 $Y=3.678
C6102	I338/avC10#11	gnd!	2.58481e-18	$X=13.642 $Y=4.293
C6103	I338/avC10#7	gnd!	5.96767e-19	$X=13.5185 $Y=4.552
C6104	vdd!#45	gnd!	1.1535e-18	$X=13.5175 $Y=5.6815
C6105	CLK#85	gnd!	6.87589e-19	$X=14.061 $Y=5.2195
C6106	I338/avC10#17	gnd!	2.40403e-18	$X=14.296 $Y=4.244
C6107	I338/I0/avC9#7	gnd!	6.31893e-18	$X=14.9745 $Y=4.1285
C6108	avC8#127	gnd!	1.02304e-18	$X=15.0165 $Y=4.897
C6109	Set#49	gnd!	1.08629e-17	$X=15.217 $Y=1.3385
C6110	avC9#65	gnd!	5.61658e-17	$X=15.614 $Y=1.0275
C6111	avC9#62	gnd!	1.38208e-18	$X=15.6155 $Y=1.9275
C6112	I338/I0/avC9#11	gnd!	4.7981e-18	$X=15.708 $Y=4.1365
C6113	avC9#66	gnd!	3.2792e-17	$X=16.163 $Y=1.58
C6114	CLK#136	gnd!	1.43287e-18	$X=16.844 $Y=4.9285
C6115	avC8#135	gnd!	2.31886e-21	$X=16.851 $Y=5.222
C6116	avC8#145	gnd!	3.43719e-18	$X=17.403 $Y=1.2605
C6117	CLK#141	gnd!	4.15969e-18	$X=17.4055 $Y=1.5535
C6118	Set#58	gnd!	3.42173e-19	$X=17.8715 $Y=4.9945
C6119	vdd!#49	gnd!	2.417e-18	$X=18.214 $Y=4.281
C6120	I337/avC10	gnd!	8.69218e-19	$X=18.217 $Y=5.738
C6121	I335/I0/avC9#4	gnd!	7.83303e-18	$X=18.5255 $Y=2.3285
C6122	avC9#72	gnd!	8.12091e-19	$X=19.035 $Y=3.645
C6123	I337/avC10#11	gnd!	3.36116e-18	$X=19.172 $Y=4.293
C6124	I337/avC10#7	gnd!	4.26093e-19	$X=19.055 $Y=4.552
C6125	vdd!#53	gnd!	5.3056e-19	$X=19.054 $Y=5.6855
C6126	I335/I0/avC8	gnd!	1.55757e-16	$X=19.6255 $Y=0.743
C6127	avC8#151	gnd!	6.4338e-18	$X=19.219 $Y=1.5695
C6128	I335/I0/avC9#5	gnd!	5.07825e-18	$X=19.2585 $Y=2.3405
C6129	CLK#148	gnd!	7.03451e-19	$X=19.5945 $Y=5.2195
C6130	I335/avC10#2	gnd!	1.09694e-18	$X=19.9445 $Y=2.105
C6131	I337/avC10#17	gnd!	5.79805e-19	$X=19.6765 $Y=4.231
C6132	CLK#152	gnd!	1.06686e-18	$X=20.1865 $Y=1.2535
C6133	I337/I0/avC9#7	gnd!	3.44149e-18	$X=20.5 $Y=4.1285
C6134	avC8#160	gnd!	6.92566e-19	$X=20.5435 $Y=4.897
C6135	vdd!#58	gnd!	2.23639e-17	$X=20.7265 $Y=0.789
C6136	I335/avC10#9	gnd!	9.59302e-19	$X=20.7295 $Y=1.962
C6137	I335/avC10#13	gnd!	2.60787e-18	$X=20.609 $Y=2.282
C6138	avC9#86	gnd!	1.38862e-18	$X=20.8895 $Y=2.7895
C6139	I337/I0/avC9#11	gnd!	3.84068e-18	$X=21.2335 $Y=4.1365
C6140	I335/avC10#18	gnd!	2.41576e-17	$X=21.563 $Y=0.734
C6141	vdd!#64	gnd!	1.96928e-18	$X=21.5715 $Y=2.193
C6142	Set#70	gnd!	1.41203e-19	$X=22.1725 $Y=1.481
C6143	CLK#167	gnd!	2.20628e-18	$X=22.3775 $Y=4.9285
C6144	avC8#165	gnd!	2.68829e-18	$X=22.388 $Y=5.222
C6145	avC8#175	gnd!	3.34133e-18	$X=23.018 $Y=1.2605
C6146	CLK#172	gnd!	3.68967e-18	$X=23.021 $Y=1.5535
C6147	avC17#7	gnd!	1.85434e-18	$X=24.0445 $Y=4.355
C6148	I336/I0/avC9#4	gnd!	3.80021e-18	$X=24.246 $Y=2.334
C6149	avC17#10	gnd!	4.08525e-19	$X=24.5705 $Y=5.4265
C6150	avC17#9	gnd!	4.45637e-18	$X=24.6245 $Y=4.461
C6151	I336/I0/avC8	gnd!	1.58524e-16	$X=25.134 $Y=0.743
C6152	avC8#179	gnd!	7.21752e-18	$X=24.826 $Y=1.5695
C6153	I336/I0/avC9#8	gnd!	4.82479e-18	$X=24.8635 $Y=2.3405
C6154	avC17#17	gnd!	7.10424e-18	$X=25.322 $Y=4.2735
C6155	I336/avC10#2	gnd!	1.70024e-18	$X=25.5555 $Y=2.105
C6156	CLK#184	gnd!	4.04281e-18	$X=25.8005 $Y=1.2535
C6157	avC17#18	gnd!	1.33131e-18	$X=25.6655 $Y=5.4865
C6158	I334/avC7#8	gnd!	7.72501e-19	$X=26.2445 $Y=5.496
C6159	avC9#92	gnd!	1.62563e-18	$X=26.142 $Y=2.807
C6160	vdd!#65	gnd!	2.32314e-17	$X=26.3375 $Y=0.789
C6161	I336/avC10#10	gnd!	1.14801e-18	$X=26.343 $Y=1.962
C6162	I336/avC10#9	gnd!	1.89755e-18	$X=26.2225 $Y=2.282
C6163	I334/avC7#15	gnd!	7.1666e-19	$X=26.742 $Y=4.2105
C6164	avC18#13	gnd!	2.73034e-18	$X=26.771 $Y=2.762
C6165	9_B0#17	gnd!	1.08258e-18	$X=27.0165 $Y=4.81
C6166	I336/avC10#16	gnd!	3.79345e-17	$X=27.1765 $Y=0.734
C6167	vdd!#71	gnd!	1.01047e-17	$X=27.1865 $Y=2.193
C6168	avC18#14	gnd!	1.15295e-18	$X=27.2775 $Y=5.238
C6169	Set#78	gnd!	4.00831e-17	$X=27.5365 $Y=1.4815
C6170	vdd!#88	gnd!	5.19223e-18	$X=11.938 $Y=1.9975
C6171	vdd!#225	gnd!	1.35303e-19	$X=-3.615 $Y=4.3435
C6172	avC6#5	gnd!	3.94115e-19	$X=-3.212 $Y=4.3425
C6173	I341/avC10#9	gnd!	1.02502e-20	$X=-2.816 $Y=4.3435
C6174	avC7#7	gnd!	1.80942e-19	$X=-2.7805 $Y=1.8935
C6175	I341/I0/avC9	gnd!	4.56738e-18	$X=-1.75 $Y=3.7915
C6176	9_B0#11	gnd!	6.45953e-19	$X=-1.768 $Y=2.2465
C6177	vdd!#209	gnd!	1.00823e-18	$X=-0.7685 $Y=2.1475
C6178	I330/I0/avC7#4	gnd!	4.11197e-19	$X=-0.1695 $Y=2.1475
C6179	I341/I0/avC7#6	gnd!	3.52624e-19	$X=0.4545 $Y=4.3245
C6180	I330/I0/avC9#2	gnd!	6.32114e-19	$X=0.8035 $Y=2.325
C6181	I330/avC10#3	gnd!	4.07919e-19	$X=2.16 $Y=2.325
C6182	I330/avC10#11	gnd!	3.80117e-20	$X=3.109 $Y=2.127
C6183	I340/I0/avC9	gnd!	8.41944e-18	$X=3.5765 $Y=3.7915
C6184	avC11#5	gnd!	2.86865e-19	$X=3.51 $Y=2.1265
C6185	I331/I0/avC7#4	gnd!	1.88849e-18	$X=5.448 $Y=2.1475
C6186	I340/I0/avC7#6	gnd!	5.07408e-19	$X=5.8475 $Y=4.3245
C6187	I331/I0/avC9#2	gnd!	1.88271e-18	$X=6.414 $Y=2.325
C6188	vdd!#173	gnd!	7.60143e-21	$X=7.267 $Y=4.3435
C6189	I331/avC10#3	gnd!	4.07919e-19	$X=7.7705 $Y=2.325
C6190	I339/I0/avC9	gnd!	4.55975e-18	$X=9.0025 $Y=3.7915
C6191	I331/avC10#11	gnd!	3.80117e-20	$X=8.725 $Y=2.127
C6192	avC13	gnd!	6.70327e-19	$X=9.125 $Y=2.1265
C6193	avC8#66	gnd!	8.18646e-18	$X=12.4385 $Y=2.0905
C6194	I339/I0/avC7#6	gnd!	1.95323e-18	$X=11.3405 $Y=4.3245
C6195	vdd!#148	gnd!	3.12551e-20	$X=12.6985 $Y=4.3435
C6196	I338/I0/avC9	gnd!	4.46118e-18	$X=14.37 $Y=3.7915
C6197	avC9#60	gnd!	3.07493e-20	$X=15.6145 $Y=1.9275
C6198	I338/I0/avC9#12	gnd!	3.35838e-19	$X=15.81 $Y=4.1405
C6199	I338/I0/avC7#6	gnd!	7.54898e-19	$X=16.7735 $Y=4.3245
C6200	vdd!#116	gnd!	3.73426e-19	$X=16.8735 $Y=2.1475
C6201	I335/I0/avC7#4	gnd!	6.3376e-19	$X=17.4725 $Y=2.1475
C6202	I335/I0/avC9#2	gnd!	1.46598e-18	$X=18.4235 $Y=2.325
C6203	I337/I0/avC9	gnd!	5.17124e-18	$X=19.836 $Y=3.7915
C6204	I335/avC10#3	gnd!	1.01638e-18	$X=19.78 $Y=2.325
C6205	I335/avC10#11	gnd!	4.85959e-20	$X=20.7455 $Y=2.127
C6206	avC16#5	gnd!	2.74407e-19	$X=21.143 $Y=2.1265
C6207	I337/I0/avC9#12	gnd!	5.74278e-19	$X=21.336 $Y=4.1405
C6208	I337/I0/avC7#6	gnd!	7.54898e-19	$X=22.3065 $Y=4.3245
C6209	I336/I0/avC7#4	gnd!	2.06023e-18	$X=23.0855 $Y=2.1475
C6210	I336/I0/avC9#2	gnd!	4.68307e-19	$X=24.029 $Y=2.325
C6211	I334/avC7#3	gnd!	3.32301e-19	$X=24.3515 $Y=4.357
C6212	I336/avC10#3	gnd!	7.99816e-19	$X=25.3855 $Y=2.325
C6213	avC17#14	gnd!	5.57229e-19	$X=25.408 $Y=4.196
C6214	I334/avC6#4	gnd!	9.76357e-19	$X=25.802 $Y=4.1945
C6215	vdd!#82	gnd!	1.15281e-19	$X=26.206 $Y=4.196
C6216	I336/avC10#12	gnd!	3.75686e-19	$X=26.357 $Y=2.127
C6217	I334/avC7#12	gnd!	1.05092e-19	$X=26.79 $Y=4.287
C6218	vdd!#77	gnd!	5.60253e-19	$X=27.1555 $Y=2.127
C6219	vdd!#73	gnd!	1.47594e-19	$X=27.1695 $Y=4.287
C6220	I341/I0/avC8	gnd!	4.94288e-18	$X=-1.6205 $Y=5.6495
C6221	avC10#5	gnd!	2.44972e-19	$X=2.1685 $Y=5.6845
C6222	I340/I0/avC8	gnd!	5.0864e-18	$X=3.6875 $Y=5.6495
C6223	avC11#10	gnd!	2.44545e-19	$X=3.502 $Y=0.789
C6224	I340/I0/avC7#10	gnd!	1.85561e-19	$X=5.8435 $Y=5.641
C6225	avC12#5	gnd!	2.44972e-19	$X=7.6635 $Y=5.6845
C6226	I339/I0/avC8	gnd!	5.15781e-18	$X=9.096 $Y=5.6495
C6227	avC14#5	gnd!	2.44972e-19	$X=13.0985 $Y=5.6845
C6228	I338/I0/avC8	gnd!	4.93791e-18	$X=14.445 $Y=5.6495
C6229	I338/I0/avC7#10	gnd!	9.13988e-20	$X=16.7765 $Y=5.641
C6230	avC15#5	gnd!	2.44972e-19	$X=18.6335 $Y=5.6845
C6231	I337/I0/avC8	gnd!	5.83535e-18	$X=19.8925 $Y=5.6495
C6232	avC16#10	gnd!	2.44545e-19	$X=21.151 $Y=0.789
C6233	I334/avC6#8	gnd!	1.17619e-19	$X=24.903 $Y=5.613
C6234	avC6#4	gnd!	2.10398e-18	$X=-3.2315 $Y=5.0495
C6235	avC9#2	gnd!	3.35405e-19	$X=-2.8435 $Y=5.0145
C6236	avC7#3	gnd!	1.43893e-18	$X=-2.6995 $Y=1.3935
C6237	I341/avC10#15	gnd!	2.67827e-18	$X=-1.872 $Y=5.0695
C6238	9_B0#7	gnd!	4.45859e-18	$X=-1.7565 $Y=1.471
C6239	I330/I0/avC7#3	gnd!	1.61328e-18	$X=-0.0125 $Y=1.968
C6240	avC8#12	gnd!	3.62892e-19	$X=0.515 $Y=5.329
C6241	I330/I0/avC9#6	gnd!	1.01027e-17	$X=2.3375 $Y=2.621
C6242	vdd!#198	gnd!	1.432e-18	$X=1.7535 $Y=4.1655
C6243	I330/avC10#5	gnd!	2.73733e-18	$X=2.1405 $Y=1.4155
C6244	I330/avC10	gnd!	5.10954e-19	$X=2.1405 $Y=2.502
C6245	avC10#10	gnd!	1.34024e-18	$X=2.1635 $Y=4.9855
C6246	avC11#8	gnd!	1.95365e-18	$X=3.498 $Y=1.4905
C6247	I340/avC10#15	gnd!	2.897e-18	$X=3.5245 $Y=5.0695
C6248	vdd!#189	gnd!	4.53816e-19	$X=3.9255 $Y=2.3055
C6249	I331/I0/avC7#3	gnd!	5.73538e-18	$X=5.606 $Y=1.968
C6250	avC8#44	gnd!	3.42293e-19	$X=5.912 $Y=5.329
C6251	vdd!#172	gnd!	8.48194e-19	$X=7.246 $Y=4.1655
C6252	I331/I0/avC9#6	gnd!	1.21165e-17	$X=7.892 $Y=2.621
C6253	avC12#10	gnd!	1.19944e-18	$X=7.661 $Y=4.9855
C6254	I331/avC10#5	gnd!	2.74755e-18	$X=7.762 $Y=1.4155
C6255	I331/avC10	gnd!	8.52838e-19	$X=7.762 $Y=2.502
C6256	I339/avC10#16	gnd!	2.897e-18	$X=9.021 $Y=5.0695
C6257	avC13#4	gnd!	3.32438e-18	$X=9.121 $Y=1.427
C6258	Set#33	gnd!	2.00088e-18	$X=9.5015 $Y=1.4685
C6259	avC8#70	gnd!	4.55824e-16	$X=12.638 $Y=0.8335
C6260	avC8#80	gnd!	3.49813e-19	$X=11.4095 $Y=5.329
C6261	vdd!#147	gnd!	4.00704e-19	$X=12.6785 $Y=4.1655
C6262	avC14#10	gnd!	1.33535e-18	$X=13.099 $Y=4.9855
C6263	I338/avC10#15	gnd!	2.897e-18	$X=14.458 $Y=5.0695
C6264	avC8#114	gnd!	3.74895e-19	$X=14.678 $Y=1.457
C6265	avC8#134	gnd!	3.39409e-19	$X=16.847 $Y=5.329
C6266	I335/I0/avC7#3	gnd!	6.78263e-18	$X=17.6335 $Y=1.968
C6267	vdd!#112	gnd!	8.19063e-19	$X=18.211 $Y=4.1655
C6268	avC15#10	gnd!	1.19944e-18	$X=18.6365 $Y=4.9855
C6269	I335/I0/avC9#6	gnd!	8.09066e-18	$X=19.782 $Y=2.621
C6270	I335/avC10#5	gnd!	2.74755e-18	$X=19.7945 $Y=1.4155
C6271	I335/avC10	gnd!	1.96625e-18	$X=19.7945 $Y=2.502
C6272	I337/avC10#16	gnd!	4.40676e-18	$X=19.988 $Y=4.2655
C6273	I337/avC10#15	gnd!	2.88677e-18	$X=19.9945 $Y=5.0695
C6274	avC16#8	gnd!	1.95365e-18	$X=21.1555 $Y=1.4905
C6275	vdd!#97	gnd!	2.6219e-19	$X=21.5665 $Y=2.3055
C6276	avC8#164	gnd!	1.78972e-19	$X=22.3845 $Y=5.329
C6277	CLK#171	gnd!	5.93517e-19	$X=23.023 $Y=1.566
C6278	I336/I0/avC7#3	gnd!	5.8621e-18	$X=23.248 $Y=1.968
C6279	avC17#6	gnd!	1.33331e-18	$X=23.5465 $Y=4.2835
C6280	I336/I0/avC9	gnd!	5.97846e-19	$X=24.047 $Y=2.3275
C6281	I336/I0/avC9#5	gnd!	1.35003e-17	$X=25.332 $Y=2.621
C6282	I336/avC10#5	gnd!	2.74755e-18	$X=25.411 $Y=1.4155
C6283	I336/avC10	gnd!	2.06657e-18	$X=25.411 $Y=2.502
C6284	avC18#9	gnd!	5.12819e-18	$X=26.771 $Y=1.427
C6285	vdd!#76	gnd!	2.58767e-17	$X=27.179 $Y=2.3055
C6286	avC18#17	gnd!	6.2625e-19	$X=26.91 $Y=5.154
C6287	avC6#2	gnd!	4.45516e-18	$X=-3.231 $Y=5.5695
C6288	avC6#6	gnd!	2.25904e-18	$X=-3.227 $Y=4.421
C6289	avC9#6	gnd!	1.99695e-18	$X=-3.0155 $Y=5.0825
C6290	avC7#5	gnd!	1.13732e-17	$X=-2.703 $Y=0.9275
C6291	I341/avC10#13	gnd!	2.03405e-19	$X=-1.8705 $Y=5.635
C6292	avC8#3	gnd!	5.00258e-18	$X=-1.7095 $Y=4.3265
C6293	9_B0#9	gnd!	1.13391e-17	$X=-1.7635 $Y=0.9875
C6294	9_B0#12	gnd!	3.91602e-18	$X=-1.7575 $Y=2.1495
C6295	I341/I0/avC8#6	gnd!	2.36484e-18	$X=-0.5045 $Y=5.608
C6296	CLK#9	gnd!	9.84475e-19	$X=-0.248 $Y=1.566
C6297	avC8#7	gnd!	4.95785e-18	$X=-0.2495 $Y=1.145
C6298	I341/I0/avC7#7	gnd!	2.40546e-18	$X=0.2915 $Y=4.5055
C6299	I341/I0/avC7#9	gnd!	1.58041e-18	$X=0.1515 $Y=5.058
C6300	I341/I0/avC7#11	gnd!	1.78699e-18	$X=0.288 $Y=5.5805
C6301	avC8#14	gnd!	2.46774e-19	$X=0.513 $Y=5.207
C6302	CLK#17	gnd!	6.43152e-19	$X=0.5165 $Y=4.784
C6303	I330/I0/avC7#2	gnd!	3.22932e-18	$X=0.1265 $Y=1.4145
C6304	I330/I0/avC7#7	gnd!	3.55729e-17	$X=-0.0165 $Y=0.894
C6305	avC10#2	gnd!	3.63694e-19	$X=0.861 $Y=5.0585
C6306	I330/I0/avC8#6	gnd!	6.63474e-17	$X=0.788 $Y=0.864
C6307	avC10#6	gnd!	1.99598e-18	$X=2.1635 $Y=5.6525
C6308	avC10#8	gnd!	1.7161e-19	$X=1.847 $Y=5.335
C6309	avC10#12	gnd!	1.23914e-18	$X=2.168 $Y=4.421
C6310	I330/avC10#7	gnd!	1.61032e-17	$X=2.1415 $Y=0.84
C6311	avC9#16	gnd!	1.07377e-18	$X=2.8515 $Y=4.525
C6312	CLK#26	gnd!	5.58336e-18	$X=0.3605 $Y=1.7995
C6313	CLK#28	gnd!	1.54632e-18	$X=0.2565 $Y=4.91
C6314	avC9#19	gnd!	1.49841e-18	$X=2.379 $Y=5.0825
C6315	I340/avC10#13	gnd!	2.1241e-19	$X=3.5255 $Y=5.635
C6316	Set#18	gnd!	9.90258e-19	$X=3.7125 $Y=1.426
C6317	avC8#31	gnd!	2.58895e-18	$X=3.6515 $Y=4.3265
C6318	I340/I0/avC8#6	gnd!	2.2213e-18	$X=4.888 $Y=5.608
C6319	avC11#6	gnd!	1.91144e-18	$X=3.5015 $Y=2.0535
C6320	avC11#9	gnd!	5.12719e-18	$X=3.8825 $Y=1.134
C6321	avC11#11	gnd!	1.13745e-17	$X=3.498 $Y=0.8225
C6322	CLK#40	gnd!	4.73312e-19	$X=5.373 $Y=1.566
C6323	avC8#37	gnd!	5.20535e-18	$X=5.3725 $Y=1.145
C6324	I340/I0/avC7#7	gnd!	1.68406e-18	$X=5.686 $Y=4.5055
C6325	I340/I0/avC7#9	gnd!	1.56157e-18	$X=5.546 $Y=5.058
C6326	I340/I0/avC7#11	gnd!	1.6169e-18	$X=5.684 $Y=5.5805
C6327	avC8#46	gnd!	1.62496e-19	$X=5.9115 $Y=5.207
C6328	CLK#49	gnd!	6.19379e-19	$X=5.913 $Y=4.784
C6329	avC12#2	gnd!	3.32946e-19	$X=6.2555 $Y=5.0585
C6330	I331/I0/avC7#2	gnd!	4.56787e-18	$X=5.746 $Y=1.4145
C6331	I331/I0/avC7#7	gnd!	3.69528e-17	$X=5.604 $Y=0.894
C6332	CLK#54	gnd!	1.17609e-18	$X=5.6385 $Y=4.91
C6333	I331/I0/avC8#6	gnd!	6.62561e-17	$X=6.4065 $Y=0.864
C6334	avC12#6	gnd!	1.99598e-18	$X=7.661 $Y=5.6525
C6335	avC12#8	gnd!	1.7161e-19	$X=7.317 $Y=5.3345
C6336	avC12#12	gnd!	1.0814e-18	$X=7.663 $Y=4.421
C6337	I331/avC10#7	gnd!	1.60942e-17	$X=7.7625 $Y=0.84
C6338	avC9#35	gnd!	1.0767e-18	$X=8.3445 $Y=4.525
C6339	CLK#59	gnd!	4.13993e-18	$X=5.9705 $Y=1.786
C6340	avC9#38	gnd!	1.41112e-18	$X=7.8735 $Y=5.0825
C6341	I339/avC10#14	gnd!	4.46341e-19	$X=9.0215 $Y=5.635
C6342	avC13#2	gnd!	7.7763e-19	$X=9.1225 $Y=2.1335
C6343	avC13#6	gnd!	1.3116e-17	$X=9.121 $Y=0.9065
C6344	Set#36	gnd!	5.90936e-19	$X=9.332 $Y=1.426
C6345	avC8#61	gnd!	1.52931e-18	$X=9.112 $Y=4.3265
C6346	I339/I0/avC8#6	gnd!	1.71386e-18	$X=10.3815 $Y=5.608
C6347	I339/I0/avC7#7	gnd!	1.59099e-18	$X=11.1805 $Y=4.5055
C6348	I339/I0/avC7#9	gnd!	1.62325e-18	$X=11.0405 $Y=5.058
C6349	I339/I0/avC7#11	gnd!	1.73559e-18	$X=11.18 $Y=5.5805
C6350	avC8#82	gnd!	2.37851e-19	$X=11.4095 $Y=5.207
C6351	CLK#75	gnd!	6.2887e-19	$X=11.41 $Y=4.784
C6352	avC14#2	gnd!	3.49474e-19	$X=11.75 $Y=5.0585
C6353	CLK#81	gnd!	1.52283e-18	$X=11.1205 $Y=4.91
C6354	avC14#6	gnd!	2.09512e-18	$X=13.099 $Y=5.6525
C6355	avC14#8	gnd!	1.7161e-19	$X=12.767 $Y=5.335
C6356	avC14#12	gnd!	6.24724e-19	$X=13.0985 $Y=4.421
C6357	avC9#54	gnd!	1.07377e-18	$X=13.7775 $Y=4.525
C6358	avC9#57	gnd!	1.09032e-18	$X=13.308 $Y=5.0825
C6359	I338/avC10#13	gnd!	4.44375e-19	$X=14.4575 $Y=5.635
C6360	CLK#93	gnd!	2.75907e-16	$X=12.3495 $Y=0.9525
C6361	avC8#128	gnd!	7.91212e-19	$X=14.513 $Y=4.3265
C6362	I338/I0/avC8#6	gnd!	2.25609e-18	$X=15.815 $Y=5.608
C6363	avC9#69	gnd!	2.39265e-18	$X=15.8025 $Y=1.6185
C6364	I338/I0/avC7#7	gnd!	2.64696e-18	$X=16.615 $Y=4.5055
C6365	I338/I0/avC7#9	gnd!	1.39314e-18	$X=16.475 $Y=5.058
C6366	I338/I0/avC7#11	gnd!	1.56646e-18	$X=16.616 $Y=5.5805
C6367	avC8#136	gnd!	1.57979e-19	$X=16.848 $Y=5.207
C6368	CLK#133	gnd!	6.9711e-19	$X=16.8465 $Y=4.784
C6369	CLK#138	gnd!	1.9077e-18	$X=16.5425 $Y=4.91
C6370	CLK#142	gnd!	5.09588e-19	$X=17.4065 $Y=1.566
C6371	avC8#143	gnd!	6.68841e-18	$X=17.407 $Y=1.145
C6372	avC15#2	gnd!	3.10094e-19	$X=17.184 $Y=5.0585
C6373	avC15#6	gnd!	1.99598e-18	$X=18.6365 $Y=5.6525
C6374	avC15#8	gnd!	1.7161e-19	$X=18.276 $Y=5.3345
C6375	avC15#12	gnd!	1.1149e-18	$X=18.634 $Y=4.421
C6376	I335/I0/avC7#2	gnd!	3.18438e-18	$X=17.7735 $Y=1.4145
C6377	I335/I0/avC7#7	gnd!	3.55729e-17	$X=17.6355 $Y=0.894
C6378	avC9#75	gnd!	1.41112e-18	$X=18.843 $Y=5.0825
C6379	avC9#79	gnd!	1.0767e-18	$X=19.31 $Y=4.525
C6380	I335/I0/avC8#6	gnd!	6.61639e-17	$X=18.4315 $Y=0.864
C6381	I335/avC10#7	gnd!	1.61032e-17	$X=19.794 $Y=0.84
C6382	I337/avC10#13	gnd!	4.46341e-19	$X=19.994 $Y=5.635
C6383	avC8#157	gnd!	1.41786e-18	$X=20.013 $Y=4.3265
C6384	I337/I0/avC8#6	gnd!	1.71386e-18	$X=21.348 $Y=5.608
C6385	Set#66	gnd!	1.10634e-18	$X=21.3605 $Y=1.426
C6386	I337/I0/avC7#7	gnd!	2.08819e-18	$X=22.149 $Y=4.5055
C6387	I337/I0/avC7#9	gnd!	2.5963e-20	$X=22.0095 $Y=5.058
C6388	I337/I0/avC7#11	gnd!	2.57227e-19	$X=22.152 $Y=5.5805
C6389	avC8#166	gnd!	7.06415e-19	$X=22.386 $Y=5.207
C6390	CLK#164	gnd!	2.52998e-19	$X=22.383 $Y=4.784
C6391	avC16#6	gnd!	1.25e-18	$X=21.1515 $Y=2.0535
C6392	avC16#9	gnd!	5.07804e-18	$X=21.5275 $Y=1.134
C6393	avC16#11	gnd!	1.12841e-17	$X=21.1555 $Y=0.8225
C6394	CLK#169	gnd!	1.7932e-18	$X=22.064 $Y=4.91
C6395	avC8#173	gnd!	5.21021e-18	$X=23.0245 $Y=1.145
C6396	avC17#2	gnd!	2.30123e-19	$X=22.7185 $Y=5.0585
C6397	I336/I0/avC7#2	gnd!	4.57271e-18	$X=23.388 $Y=1.4145
C6398	I336/I0/avC7#7	gnd!	3.69596e-17	$X=23.2515 $Y=0.894
C6399	I334/avC7#4	gnd!	3.34888e-19	$X=24.3665 $Y=4.4305
C6400	I336/I0/avC8#6	gnd!	6.6163e-17	$X=24.045 $Y=0.864
C6401	I336/avC10#7	gnd!	1.60942e-17	$X=25.41 $Y=0.84
C6402	I334/avC6#5	gnd!	8.36078e-18	$X=25.8165 $Y=4.353
C6403	I334/avC6#7	gnd!	5.36956e-19	$X=25.0005 $Y=4.705
C6404	CLK#186	gnd!	5.99381e-18	$X=23.585 $Y=1.786
C6405	avC18#7	gnd!	2.99103e-18	$X=26.7645 $Y=2.123
C6406	avC18#11	gnd!	1.58573e-17	$X=26.7705 $Y=0.9065
C6407	I334/avC7#17	gnd!	1.00723e-17	$X=25.6075 $Y=3.4875
C6408	vdd!#74	gnd!	4.97418e-19	$X=27.1885 $Y=4.095
C6409	vdd!#83	gnd!	1.53804e-18	$X=26.242 $Y=4.111
C6410	vdd!#91	gnd!	1.74245e-19	$X=22.471 $Y=2.2555
C6411	vdd!#117	gnd!	7.66795e-19	$X=16.8555 $Y=2.2555
C6412	vdd!#121	gnd!	5.96291e-19	$X=17.395 $Y=4.219
C6413	vdd!#155	gnd!	3.47961e-19	$X=11.9595 $Y=4.219
C6414	vdd!#180	gnd!	3.33082e-19	$X=6.464 $Y=4.219
C6415	vdd!#184	gnd!	1.74592e-19	$X=4.825 $Y=2.2555
C6416	vdd!#206	gnd!	3.45229e-19	$X=1.068 $Y=4.219
C6417	vdd!#210	gnd!	4.40148e-19	$X=-0.795 $Y=2.2555
C6418	Set#74	gnd!	4.04468e-18	$X=26.975 $Y=1.426
C6419	9_B0#21	gnd!	1.56257e-18	$X=26.7105 $Y=4.8685
*
*
.ENDS LFSR_9_0
*
