*
*
*
*                       LINUX           Sun May 16 18:21:40 2021
*
*
*
*  PROGRAM  advgen
*
*  Name           : advgen - Quantus - (64-bit)
*  Version        : 20.1.2-p025
*  Build Date     : Thu Sep 3 13:54:09 PDT 2020
*
*  HSPICE LIBRARY
*
*!LENGTH_UNITS METERS
*
*
*

*
.SUBCKT LFSR_7_0 vdd! gnd! CLK Set 7_B0
*
*
*  caps2d version: 10
*
*
*       TRANSISTOR CARDS
*
*
MI33/avD1_1	I33/avC7#8	7_B0#23	gnd!#65	gnd!#5
+ nmos1v#20ivpcell#20gpdk090	L=1e-07	W=2.4e-07
+ AD=3.84e-14	AS=6.72e-14	PD=5.6e-07	PS=1.04e-06	simW=2.4e-07 fw=2.4e-07
MI33/avD1_2	avC12	avC10#13	I33/avC7#8	gnd!#5
+ nmos1v#20ivpcell#20gpdk090	L=1e-07	W=2.4e-07
+ AD=6.72e-14	AS=3.84e-14	PD=1.04e-06	PS=5.6e-07	simW=2.4e-07 fw=2.4e-07
MI33/avD1_3	I33/avC5	avC10#11	gnd!#62	gnd!#5
+ nmos1v#20ivpcell#20gpdk090	L=1e-07	W=4.8e-07
+ AD=1.344e-13	AS=1.344e-13	PD=1.52e-06	PS=1.52e-06	simW=4.8e-07 fw=4.8e-07
MI33/avD1_4	I33/avC8	I33/avC5#10	avC12#9	gnd!#5
+ nmos1v#20ivpcell#20gpdk090	L=1e-07	W=3.6e-07
+ AD=2.16e-14	AS=1.008e-13	PD=4.8e-07	PS=1.28e-06	simW=3.6e-07 fw=3.6e-07
MI33/avD1_5	gnd!#59	I33/avC7#14	I33/avC8	gnd!#5
+ nmos1v#20ivpcell#20gpdk090	L=1e-07	W=3.6e-07
+ AD=1.008e-13	AS=2.16e-14	PD=1.28e-06	PS=4.8e-07	simW=3.6e-07 fw=3.6e-07
MI11/avD1_1	7_B0#11	avC7#4	gnd!#112	gnd!#5
+ nmos1v#20ivpcell#20gpdk090	L=1e-07	W=2.4e-07
+ AD=6.72e-14	AS=6.72e-14	PD=1.04e-06	PS=1.04e-06	simW=2.4e-07 fw=2.4e-07
MI7/avD1_1	avC7#5	avC11#4	gnd!#108	gnd!#5
+ nmos1v#20ivpcell#20gpdk090	L=1e-07	W=1.2e-07
+ AD=6.96e-14	AS=6.96e-14	PD=1.16e-06	PS=1.16e-06	simW=1.2e-07 fw=1.2e-07
MI14/I1/avD1_1	avC15#5	avC9#59	vdd!#49	gnd!#5
+ nmos1v#20ivpcell#20gpdk090	L=1e-07	W=3e-07
+ AD=4.8e-14	AS=8.4e-14	PD=6.2e-07	PS=1.16e-06	simW=3e-07 fw=3e-07
MI14/I1/avD1_2	I14/avC10#2	Set#54	avC15#5	gnd!#5
+ nmos1v#20ivpcell#20gpdk090	L=1e-07	W=3e-07
+ AD=8.4e-14	AS=4.8e-14	PD=1.16e-06	PS=6.2e-07	simW=3e-07 fw=3e-07
MI14/I0/avD1_1	I14/I0/avC10	avC16#14	gnd!#1	gnd!#5
+ nmos1v#20ivpcell#20gpdk090	L=1e-07	W=2.4e-07
+ AD=1.44e-14	AS=6.72e-14	PD=3.6e-07	PS=1.04e-06	simW=2.4e-07 fw=2.4e-07
MI14/I0/avD1_2	I14/I0/avC7#10	avC6#147	I14/I0/avC10	gnd!#5
+ nmos1v#20ivpcell#20gpdk090	L=1e-07	W=2.4e-07
+ AD=6.72e-14	AS=1.44e-14	PD=1.04e-06	PS=3.6e-07	simW=2.4e-07 fw=2.4e-07
MI15/I1/avD1_1	avC14#5	avC9#47	vdd!#41	gnd!#5
+ nmos1v#20ivpcell#20gpdk090	L=1e-07	W=3e-07
+ AD=4.8e-14	AS=8.4e-14	PD=6.2e-07	PS=1.16e-06	simW=3e-07 fw=3e-07
MI15/I1/avD1_2	I15/avC10#2	Set#46	avC14#5	gnd!#5
+ nmos1v#20ivpcell#20gpdk090	L=1e-07	W=3e-07
+ AD=8.4e-14	AS=4.8e-14	PD=1.16e-06	PS=6.2e-07	simW=3e-07 fw=3e-07
MI15/I0/avD1_1	I15/I0/avC10	avC15#4	gnd!#78	gnd!#5
+ nmos1v#20ivpcell#20gpdk090	L=1e-07	W=2.4e-07
+ AD=1.44e-14	AS=6.72e-14	PD=3.6e-07	PS=1.04e-06	simW=2.4e-07 fw=2.4e-07
MI15/I0/avD1_2	I15/I0/avC7#10	avC6#111	I15/I0/avC10	gnd!#5
+ nmos1v#20ivpcell#20gpdk090	L=1e-07	W=2.4e-07
+ AD=6.72e-14	AS=1.44e-14	PD=1.04e-06	PS=3.6e-07	simW=2.4e-07 fw=2.4e-07
MI16/I1/avD1_1	avC13#5	avC9#20	vdd!#20	gnd!#5
+ nmos1v#20ivpcell#20gpdk090	L=1e-07	W=3e-07
+ AD=4.8e-14	AS=8.4e-14	PD=6.2e-07	PS=1.16e-06	simW=3e-07 fw=3e-07
MI16/I1/avD1_2	I16/avC10#2	Set#21	avC13#5	gnd!#5
+ nmos1v#20ivpcell#20gpdk090	L=1e-07	W=3e-07
+ AD=8.4e-14	AS=4.8e-14	PD=1.16e-06	PS=6.2e-07	simW=3e-07 fw=3e-07
MI16/I0/avD1_1	I16/I0/avC10	avC14#4	gnd!#88	gnd!#5
+ nmos1v#20ivpcell#20gpdk090	L=1e-07	W=2.4e-07
+ AD=1.44e-14	AS=6.72e-14	PD=3.6e-07	PS=1.04e-06	simW=2.4e-07 fw=2.4e-07
MI16/I0/avD1_2	I16/I0/avC7#10	avC6#55	I16/I0/avC10	gnd!#5
+ nmos1v#20ivpcell#20gpdk090	L=1e-07	W=2.4e-07
+ AD=6.72e-14	AS=1.44e-14	PD=1.04e-06	PS=3.6e-07	simW=2.4e-07 fw=2.4e-07
MI18/I1/avD1_1	avC11#5	avC9#16	vdd!#12	gnd!#5
+ nmos1v#20ivpcell#20gpdk090	L=1e-07	W=3e-07
+ AD=4.8e-14	AS=8.4e-14	PD=6.2e-07	PS=1.16e-06	simW=3e-07 fw=3e-07
MI18/I1/avD1_2	I18/avC10#2	Set#13	avC11#5	gnd!#5
+ nmos1v#20ivpcell#20gpdk090	L=1e-07	W=3e-07
+ AD=8.4e-14	AS=4.8e-14	PD=1.16e-06	PS=6.2e-07	simW=3e-07 fw=3e-07
MI18/I0/avD1_1	I18/I0/avC10	avC13#4	gnd!#98	gnd!#5
+ nmos1v#20ivpcell#20gpdk090	L=1e-07	W=2.4e-07
+ AD=1.44e-14	AS=6.72e-14	PD=3.6e-07	PS=1.04e-06	simW=2.4e-07 fw=2.4e-07
MI18/I0/avD1_2	I18/I0/avC7#10	avC6#22	I18/I0/avC10	gnd!#5
+ nmos1v#20ivpcell#20gpdk090	L=1e-07	W=2.4e-07
+ AD=6.72e-14	AS=1.44e-14	PD=1.04e-06	PS=3.6e-07	simW=2.4e-07 fw=2.4e-07
MI13/I1/avD1_1	avC16#6	avC9#66	vdd!#54	gnd!#5
+ nmos1v#20ivpcell#20gpdk090	L=1e-07	W=3e-07
+ AD=4.8e-14	AS=8.4e-14	PD=6.2e-07	PS=1.16e-06	simW=3e-07 fw=3e-07
MI13/I1/avD1_2	I13/avC10#16	Set#63	avC16#6	gnd!#5
+ nmos1v#20ivpcell#20gpdk090	L=1e-07	W=3e-07
+ AD=8.4e-14	AS=4.8e-14	PD=1.16e-06	PS=6.2e-07	simW=3e-07 fw=3e-07
MI13/I0/avD1_1	I13/I0/avC10	avC8#18	gnd!#23	gnd!#5
+ nmos1v#20ivpcell#20gpdk090	L=1e-07	W=2.4e-07
+ AD=1.44e-14	AS=6.72e-14	PD=3.6e-07	PS=1.04e-06	simW=2.4e-07 fw=2.4e-07
MI13/I0/avD1_2	I13/I0/avC7#6	avC6#125	I13/I0/avC10	gnd!#5
+ nmos1v#20ivpcell#20gpdk090	L=1e-07	W=2.4e-07
+ AD=6.72e-14	AS=1.44e-14	PD=1.04e-06	PS=3.6e-07	simW=2.4e-07 fw=2.4e-07
MI6/I1/avD1_1	avC8#6	avC9#32	vdd!#27	gnd!#5
+ nmos1v#20ivpcell#20gpdk090	L=1e-07	W=3e-07
+ AD=4.8e-14	AS=8.4e-14	PD=6.2e-07	PS=1.16e-06	simW=3e-07 fw=3e-07
MI6/I1/avD1_2	I6/avC10#16	Set#26	avC8#6	gnd!#5
+ nmos1v#20ivpcell#20gpdk090	L=1e-07	W=3e-07
+ AD=8.4e-14	AS=4.8e-14	PD=1.16e-06	PS=6.2e-07	simW=3e-07 fw=3e-07
MI6/I0/avD1_1	I6/I0/avC10	avC12#17	gnd!#56	gnd!#5
+ nmos1v#20ivpcell#20gpdk090	L=1e-07	W=2.4e-07
+ AD=1.44e-14	AS=6.72e-14	PD=3.6e-07	PS=1.04e-06	simW=2.4e-07 fw=2.4e-07
MI6/I0/avD1_2	I6/I0/avC7#6	avC6#21	I6/I0/avC10	gnd!#5
+ nmos1v#20ivpcell#20gpdk090	L=1e-07	W=2.4e-07
+ AD=6.72e-14	AS=1.44e-14	PD=1.04e-06	PS=3.6e-07	simW=2.4e-07 fw=2.4e-07
MI17/I1/avD1_1	avC10#6	avC9#8	vdd!#3	gnd!#5
+ nmos1v#20ivpcell#20gpdk090	L=1e-07	W=3e-07
+ AD=4.8e-14	AS=8.4e-14	PD=6.2e-07	PS=1.16e-06	simW=3e-07 fw=3e-07
MI17/I1/avD1_2	I17/avC10#16	Set#5	avC10#6	gnd!#5
+ nmos1v#20ivpcell#20gpdk090	L=1e-07	W=3e-07
+ AD=8.4e-14	AS=4.8e-14	PD=1.16e-06	PS=6.2e-07	simW=3e-07 fw=3e-07
MI17/I0/avD1_1	I17/I0/avC10	7_B0#4	gnd!#74	gnd!#5
+ nmos1v#20ivpcell#20gpdk090	L=1e-07	W=2.4e-07
+ AD=1.44e-14	AS=6.72e-14	PD=3.6e-07	PS=1.04e-06	simW=2.4e-07 fw=2.4e-07
MI17/I0/avD1_2	I17/I0/avC7#10	avC6#6	I17/I0/avC10	gnd!#5
+ nmos1v#20ivpcell#20gpdk090	L=1e-07	W=2.4e-07
+ AD=6.72e-14	AS=1.44e-14	PD=1.04e-06	PS=3.6e-07	simW=2.4e-07 fw=2.4e-07
MI17/I0/avD1_3	I17/I0/avC8#5	I17/I0/avC7	gnd!	gnd!#5
+ nmos1v#20ivpcell#20gpdk090	L=1e-07	W=4.2e-07
+ AD=6.72e-14	AS=1.176e-13	PD=7.4e-07	PS=1.4e-06	M=2	simW=4.2e-07 fw=4.2e-07
MI6/I0/avD1_3	I6/I0/avC8#5	I6/I0/avC7	gnd!	gnd!#5
+ nmos1v#20ivpcell#20gpdk090	L=1e-07	W=4.2e-07
+ AD=6.72e-14	AS=1.176e-13	PD=7.4e-07	PS=1.4e-06	M=2	simW=4.2e-07 fw=4.2e-07
MI16/I0/avD1_5	I16/avC10#12	CLK#50	I16/I0/avC8	gnd!#5
+ nmos1v#20ivpcell#20gpdk090	L=1e-07	W=4.2e-07
+ AD=6.72e-14	AS=1.176e-13	PD=7.4e-07	PS=1.4e-06	M=2	simW=4.2e-07 fw=4.2e-07
MI19/avD1_1	avC9#36	Set#31	gnd!	gnd!#5
+ nmos1v#20ivpcell#20gpdk090	L=1e-07	W=2.4e-07
+ AD=3.84e-14	AS=6.72e-14	PD=5.6e-07	PS=1.04e-06	M=2	simW=2.4e-07 fw=2.4e-07
MI18/I0/avD1_5	I18/avC10#12	CLK#19	I18/I0/avC8	gnd!#5
+ nmos1v#20ivpcell#20gpdk090	L=1e-07	W=4.2e-07
+ AD=6.72e-14	AS=1.176e-13	PD=7.4e-07	PS=1.4e-06	M=2	simW=4.2e-07 fw=4.2e-07
MI14/I0/avD1_3	I14/I0/avC8#5	I14/I0/avC7	gnd!#4	gnd!#5
+ nmos1v#20ivpcell#20gpdk090	L=1e-07	W=4.2e-07
+ AD=6.72e-14	AS=1.176e-13	PD=7.4e-07	PS=1.4e-06	M=2	simW=4.2e-07 fw=4.2e-07
MI13/I0/avD1_3	I13/I0/avC8#5	I13/I0/avC7	gnd!	gnd!#5
+ nmos1v#20ivpcell#20gpdk090	L=1e-07	W=4.2e-07
+ AD=6.72e-14	AS=1.176e-13	PD=7.4e-07	PS=1.4e-06	M=2	simW=4.2e-07 fw=4.2e-07
MI18/I0/avD1_3	I18/I0/avC8#5	I18/I0/avC7	gnd!#4	gnd!#5
+ nmos1v#20ivpcell#20gpdk090	L=1e-07	W=4.2e-07
+ AD=6.72e-14	AS=1.176e-13	PD=7.4e-07	PS=1.4e-06	M=2	simW=4.2e-07 fw=4.2e-07
MI14/I0/avD1_5	I14/avC10#12	CLK#127	I14/I0/avC8	gnd!#5
+ nmos1v#20ivpcell#20gpdk090	L=1e-07	W=4.2e-07
+ AD=6.72e-14	AS=1.176e-13	PD=7.4e-07	PS=1.4e-06	M=2	simW=4.2e-07 fw=4.2e-07
MI15/I0/avD1_3	I15/I0/avC8#5	I15/I0/avC7	gnd!#4	gnd!#5
+ nmos1v#20ivpcell#20gpdk090	L=1e-07	W=4.2e-07
+ AD=6.72e-14	AS=1.176e-13	PD=7.4e-07	PS=1.4e-06	M=2	simW=4.2e-07 fw=4.2e-07
MI13/I0/avD1_5	I13/avC10#6	CLK#135	I13/I0/avC8	gnd!#5
+ nmos1v#20ivpcell#20gpdk090	L=1e-07	W=4.2e-07
+ AD=6.72e-14	AS=1.176e-13	PD=7.4e-07	PS=1.4e-06	M=2	simW=4.2e-07 fw=4.2e-07
MI17/I0/avD1_5	I17/avC10#6	CLK#13	I17/I0/avC8	gnd!#5
+ nmos1v#20ivpcell#20gpdk090	L=1e-07	W=4.2e-07
+ AD=6.72e-14	AS=1.176e-13	PD=7.4e-07	PS=1.4e-06	M=2	simW=4.2e-07 fw=4.2e-07
MI16/I0/avD1_3	I16/I0/avC8#5	I16/I0/avC7	gnd!#4	gnd!#5
+ nmos1v#20ivpcell#20gpdk090	L=1e-07	W=4.2e-07
+ AD=6.72e-14	AS=1.176e-13	PD=7.4e-07	PS=1.4e-06	M=2	simW=4.2e-07 fw=4.2e-07
MI6/I0/avD1_5	I6/avC10#6	CLK#47	I6/I0/avC8	gnd!#5
+ nmos1v#20ivpcell#20gpdk090	L=1e-07	W=4.2e-07
+ AD=6.72e-14	AS=1.176e-13	PD=7.4e-07	PS=1.4e-06	M=2	simW=4.2e-07 fw=4.2e-07
MI15/I0/avD1_5	I15/avC10#12	CLK#69	I15/I0/avC8	gnd!#5
+ nmos1v#20ivpcell#20gpdk090	L=1e-07	W=4.2e-07
+ AD=6.72e-14	AS=1.176e-13	PD=7.4e-07	PS=1.4e-06	M=2	simW=4.2e-07 fw=4.2e-07
MI294/avD1_1	avC6#73	CLK#72	gnd!	gnd!#5
+ nmos1v#20ivpcell#20gpdk090	L=1e-07	W=4e-07
+ AD=6.4e-14	AS=7.36e-14	PD=7.2e-07	PS=8.48e-07	M=10	simW=4e-07 fw=4e-07
MI33/avD7_1	I33/avC7#3	7_B0#25	vdd!#164	vdd!#68
+ pmos1v#20ivpcell#20gpdk090	L=1e-07	W=2.4e-07
+ AD=6.72e-14	AS=6.72e-14	PD=1.04e-06	PS=1.04e-06	simW=2.4e-07 fw=2.4e-07
MI33/avD7_2	I33/avC5#5	avC10#14	vdd!#158	vdd!#68
+ pmos1v#20ivpcell#20gpdk090	L=1e-07	W=9e-07
+ AD=1.44e-13	AS=2.52e-13	PD=1.22e-06	PS=2.36e-06	simW=9e-07 fw=9e-07
MI33/avD7_3	avC12#6	I33/avC7#13	I33/avC5#5	vdd!#68
+ pmos1v#20ivpcell#20gpdk090	L=1e-07	W=9e-07
+ AD=2.52e-13	AS=1.44e-13	PD=2.36e-06	PS=1.22e-06	simW=9e-07 fw=9e-07
MI33/avD7_4	avC12#20	I33/avC5#9	I33/avC7#16	vdd!#68
+ pmos1v#20ivpcell#20gpdk090	L=1e-07	W=2.4e-07
+ AD=6.72e-14	AS=6.72e-14	PD=1.04e-06	PS=1.04e-06	simW=2.4e-07 fw=2.4e-07
MI11/avD7_1	7_B0#15	avC7#3	vdd!#182	vdd!#68
+ pmos1v#20ivpcell#20gpdk090	L=1e-07	W=4.8e-07
+ AD=1.344e-13	AS=1.344e-13	PD=1.52e-06	PS=1.52e-06	simW=4.8e-07 fw=4.8e-07
MI7/avD7_1	avC7#10	avC11#3	vdd!#176	vdd!#68
+ pmos1v#20ivpcell#20gpdk090	L=1e-07	W=2.4e-07
+ AD=6.72e-14	AS=6.72e-14	PD=1.04e-06	PS=1.04e-06	simW=2.4e-07 fw=2.4e-07
MI14/I1/avD7_1	avC15#11	avC9#58	I14/avC10#9	vdd!#68
+ pmos1v#20ivpcell#20gpdk090	L=1e-07	W=6e-07
+ AD=9.6e-14	AS=1.68e-13	PD=9.2e-07	PS=1.76e-06	simW=6e-07 fw=6e-07
MI14/I1/avD7_2	vdd!#71	Set#56	avC15#11	vdd!#68
+ pmos1v#20ivpcell#20gpdk090	L=1e-07	W=6e-07
+ AD=1.68e-13	AS=9.6e-14	PD=1.76e-06	PS=9.2e-07	simW=6e-07 fw=6e-07
MI14/I0/avD7_1	I14/I0/avC11	avC16#13	vdd!#65	vdd!#68
+ pmos1v#20ivpcell#20gpdk090	L=1e-07	W=4.8e-07
+ AD=2.88e-14	AS=1.344e-13	PD=6e-07	PS=1.52e-06	simW=4.8e-07 fw=4.8e-07
MI14/I0/avD7_2	I14/I0/avC7#6	CLK#146	I14/I0/avC11	vdd!#68
+ pmos1v#20ivpcell#20gpdk090	L=1e-07	W=4.8e-07
+ AD=1.344e-13	AS=2.88e-14	PD=1.52e-06	PS=6e-07	simW=4.8e-07 fw=4.8e-07
MI15/I1/avD7_1	avC14#11	avC9#46	I15/avC10#9	vdd!#68
+ pmos1v#20ivpcell#20gpdk090	L=1e-07	W=6e-07
+ AD=9.6e-14	AS=1.68e-13	PD=9.2e-07	PS=1.76e-06	simW=6e-07 fw=6e-07
MI15/I1/avD7_2	vdd!#120	Set#48	avC14#11	vdd!#68
+ pmos1v#20ivpcell#20gpdk090	L=1e-07	W=6e-07
+ AD=1.68e-13	AS=9.6e-14	PD=1.76e-06	PS=9.2e-07	simW=6e-07 fw=6e-07
MI15/I0/avD7_1	I15/I0/avC11	avC15#3	vdd!#95	vdd!#68
+ pmos1v#20ivpcell#20gpdk090	L=1e-07	W=4.8e-07
+ AD=2.88e-14	AS=1.344e-13	PD=6e-07	PS=1.52e-06	simW=4.8e-07 fw=4.8e-07
MI15/I0/avD7_2	I15/I0/avC7#6	CLK#105	I15/I0/avC11	vdd!#68
+ pmos1v#20ivpcell#20gpdk090	L=1e-07	W=4.8e-07
+ AD=1.344e-13	AS=2.88e-14	PD=1.52e-06	PS=6e-07	simW=4.8e-07 fw=4.8e-07
MI16/I1/avD7_1	avC13#11	avC9#19	I16/avC10#9	vdd!#68
+ pmos1v#20ivpcell#20gpdk090	L=1e-07	W=6e-07
+ AD=9.6e-14	AS=1.68e-13	PD=9.2e-07	PS=1.76e-06	simW=6e-07 fw=6e-07
MI16/I1/avD7_2	vdd!#145	Set#23	avC13#11	vdd!#68
+ pmos1v#20ivpcell#20gpdk090	L=1e-07	W=6e-07
+ AD=1.68e-13	AS=9.6e-14	PD=1.76e-06	PS=9.2e-07	simW=6e-07 fw=6e-07
MI16/I0/avD7_1	I16/I0/avC11	avC14#3	vdd!#126	vdd!#68
+ pmos1v#20ivpcell#20gpdk090	L=1e-07	W=4.8e-07
+ AD=2.88e-14	AS=1.344e-13	PD=6e-07	PS=1.52e-06	simW=4.8e-07 fw=4.8e-07
MI16/I0/avD7_2	I16/I0/avC7#6	CLK#53	I16/I0/avC11	vdd!#68
+ pmos1v#20ivpcell#20gpdk090	L=1e-07	W=4.8e-07
+ AD=1.344e-13	AS=2.88e-14	PD=1.52e-06	PS=6e-07	simW=4.8e-07 fw=4.8e-07
MI18/I1/avD7_1	avC11#11	avC9#15	I18/avC10#9	vdd!#68
+ pmos1v#20ivpcell#20gpdk090	L=1e-07	W=6e-07
+ AD=9.6e-14	AS=1.68e-13	PD=9.2e-07	PS=1.76e-06	simW=6e-07 fw=6e-07
MI18/I1/avD7_2	vdd!#168	Set#15	avC11#11	vdd!#68
+ pmos1v#20ivpcell#20gpdk090	L=1e-07	W=6e-07
+ AD=1.68e-13	AS=9.6e-14	PD=1.76e-06	PS=9.2e-07	simW=6e-07 fw=6e-07
MI18/I0/avD7_1	I18/I0/avC11	avC13#3	vdd!#152	vdd!#68
+ pmos1v#20ivpcell#20gpdk090	L=1e-07	W=4.8e-07
+ AD=2.88e-14	AS=1.344e-13	PD=6e-07	PS=1.52e-06	simW=4.8e-07 fw=4.8e-07
MI18/I0/avD7_2	I18/I0/avC7#6	CLK#27	I18/I0/avC11	vdd!#68
+ pmos1v#20ivpcell#20gpdk090	L=1e-07	W=4.8e-07
+ AD=1.344e-13	AS=2.88e-14	PD=1.52e-06	PS=6e-07	simW=4.8e-07 fw=4.8e-07
MI13/I1/avD7_1	avC16#2	avC9#64	I13/avC10#11	vdd!#68
+ pmos1v#20ivpcell#20gpdk090	L=1e-07	W=6e-07
+ AD=9.6e-14	AS=1.68e-13	PD=9.2e-07	PS=1.76e-06	simW=6e-07 fw=6e-07
MI13/I1/avD7_2	vdd!#61	Set#64	avC16#2	vdd!#68
+ pmos1v#20ivpcell#20gpdk090	L=1e-07	W=6e-07
+ AD=1.68e-13	AS=9.6e-14	PD=1.76e-06	PS=9.2e-07	simW=6e-07 fw=6e-07
MI13/I0/avD7_1	I13/I0/avC11	avC8#16	vdd!#87	vdd!#68
+ pmos1v#20ivpcell#20gpdk090	L=1e-07	W=4.8e-07
+ AD=2.88e-14	AS=1.344e-13	PD=6e-07	PS=1.52e-06	simW=4.8e-07 fw=4.8e-07
MI13/I0/avD7_2	I13/I0/avC7#4	CLK#115	I13/I0/avC11	vdd!#68
+ pmos1v#20ivpcell#20gpdk090	L=1e-07	W=4.8e-07
+ AD=1.344e-13	AS=2.88e-14	PD=1.52e-06	PS=6e-07	simW=4.8e-07 fw=4.8e-07
MI6/I1/avD7_1	avC8	avC9#30	I6/avC10#11	vdd!#68
+ pmos1v#20ivpcell#20gpdk090	L=1e-07	W=6e-07
+ AD=9.6e-14	AS=1.68e-13	PD=9.2e-07	PS=1.76e-06	simW=6e-07 fw=6e-07
MI6/I1/avD7_2	vdd!#34	Set#27	avC8	vdd!#68
+ pmos1v#20ivpcell#20gpdk090	L=1e-07	W=6e-07
+ AD=1.68e-13	AS=9.6e-14	PD=1.76e-06	PS=9.2e-07	simW=6e-07 fw=6e-07
MI6/I0/avD7_1	I6/I0/avC11	avC12#14	vdd!#148	vdd!#68
+ pmos1v#20ivpcell#20gpdk090	L=1e-07	W=4.8e-07
+ AD=2.88e-14	AS=1.344e-13	PD=6e-07	PS=1.52e-06	simW=4.8e-07 fw=4.8e-07
MI6/I0/avD7_2	I6/I0/avC7#4	CLK#26	I6/I0/avC11	vdd!#68
+ pmos1v#20ivpcell#20gpdk090	L=1e-07	W=4.8e-07
+ AD=1.344e-13	AS=2.88e-14	PD=1.52e-06	PS=6e-07	simW=4.8e-07 fw=4.8e-07
MI17/I1/avD7_1	avC10	avC9#6	I17/avC10#11	vdd!#68
+ pmos1v#20ivpcell#20gpdk090	L=1e-07	W=6e-07
+ AD=9.6e-14	AS=1.68e-13	PD=9.2e-07	PS=1.76e-06	simW=6e-07 fw=6e-07
MI17/I1/avD7_2	vdd!#171	Set#6	avC10	vdd!#68
+ pmos1v#20ivpcell#20gpdk090	L=1e-07	W=6e-07
+ AD=1.68e-13	AS=9.6e-14	PD=1.76e-06	PS=9.2e-07	simW=6e-07 fw=6e-07
MI17/I0/avD7_1	I17/I0/avC11	7_B0#1	vdd!#186	vdd!#68
+ pmos1v#20ivpcell#20gpdk090	L=1e-07	W=4.8e-07
+ AD=2.88e-14	AS=1.344e-13	PD=6e-07	PS=1.52e-06	simW=4.8e-07 fw=4.8e-07
MI17/I0/avD7_2	I17/I0/avC7#8	CLK#7	I17/I0/avC11	vdd!#68
+ pmos1v#20ivpcell#20gpdk090	L=1e-07	W=4.8e-07
+ AD=1.344e-13	AS=2.88e-14	PD=1.52e-06	PS=6e-07	simW=4.8e-07 fw=4.8e-07
MI17/I0/avD7_5	I17/avC10#3	avC6	I17/I0/avC9#5	vdd!#68
+ pmos1v#20ivpcell#20gpdk090	L=1e-07	W=8.4e-07
+ AD=1.344e-13	AS=2.352e-13	PD=1.16e-06	PS=2.24e-06	M=2	simW=8.4e-07 fw=8.4e-07
MI13/I0/avD7_5	I13/avC10#3	avC6#138	I13/I0/avC9#5	vdd!#68
+ pmos1v#20ivpcell#20gpdk090	L=1e-07	W=8.4e-07
+ AD=1.344e-13	AS=2.352e-13	PD=1.16e-06	PS=2.24e-06	M=2	simW=8.4e-07 fw=8.4e-07
MI18/I0/avD7_5	I18/avC10#18	avC6#17	I18/I0/avC9	vdd!#68
+ pmos1v#20ivpcell#20gpdk090	L=1e-07	W=8.4e-07
+ AD=1.344e-13	AS=2.352e-13	PD=1.16e-06	PS=2.24e-06	M=2	simW=8.4e-07 fw=8.4e-07
MI15/I0/avD7_5	I15/avC10#18	avC6#67	I15/I0/avC9	vdd!#68
+ pmos1v#20ivpcell#20gpdk090	L=1e-07	W=8.4e-07
+ AD=1.344e-13	AS=2.352e-13	PD=1.16e-06	PS=2.24e-06	M=2	simW=8.4e-07 fw=8.4e-07
MI17/I0/avD7_3	I17/I0/avC9#2	I17/I0/avC7	vdd!	vdd!#68
+ pmos1v#20ivpcell#20gpdk090	L=1e-07	W=8.4e-07
+ AD=1.344e-13	AS=2.352e-13	PD=1.16e-06	PS=2.24e-06	M=2	simW=8.4e-07 fw=8.4e-07
MI18/I0/avD7_3	I18/I0/avC9#12	I18/I0/avC7	vdd!	vdd!#68
+ pmos1v#20ivpcell#20gpdk090	L=1e-07	W=8.4e-07
+ AD=1.344e-13	AS=2.352e-13	PD=1.16e-06	PS=2.24e-06	M=2	simW=8.4e-07 fw=8.4e-07
MI6/I0/avD7_3	I6/I0/avC9#2	I6/I0/avC7	vdd!	vdd!#68
+ pmos1v#20ivpcell#20gpdk090	L=1e-07	W=8.4e-07
+ AD=1.344e-13	AS=2.352e-13	PD=1.16e-06	PS=2.24e-06	M=2	simW=8.4e-07 fw=8.4e-07
MI16/I0/avD7_3	I16/I0/avC9#12	I16/I0/avC7	vdd!	vdd!#68
+ pmos1v#20ivpcell#20gpdk090	L=1e-07	W=8.4e-07
+ AD=1.344e-13	AS=2.352e-13	PD=1.16e-06	PS=2.24e-06	M=2	simW=8.4e-07 fw=8.4e-07
MI19/avD7_1	avC9#33	Set#31	vdd!	vdd!#68
+ pmos1v#20ivpcell#20gpdk090	L=1e-07	W=4.8e-07
+ AD=7.68e-14	AS=1.344e-13	PD=8e-07	PS=1.52e-06	M=2	simW=4.8e-07 fw=4.8e-07
MI15/I0/avD7_3	I15/I0/avC9#12	I15/I0/avC7	vdd!	vdd!#68
+ pmos1v#20ivpcell#20gpdk090	L=1e-07	W=8.4e-07
+ AD=1.344e-13	AS=2.352e-13	PD=1.16e-06	PS=2.24e-06	M=2	simW=8.4e-07 fw=8.4e-07
MI13/I0/avD7_3	I13/I0/avC9#2	I13/I0/avC7	vdd!	vdd!#68
+ pmos1v#20ivpcell#20gpdk090	L=1e-07	W=8.4e-07
+ AD=1.344e-13	AS=2.352e-13	PD=1.16e-06	PS=2.24e-06	M=2	simW=8.4e-07 fw=8.4e-07
MI14/I0/avD7_3	I14/I0/avC9#12	I14/I0/avC7	vdd!	vdd!#68
+ pmos1v#20ivpcell#20gpdk090	L=1e-07	W=8.4e-07
+ AD=1.344e-13	AS=2.352e-13	PD=1.16e-06	PS=2.24e-06	M=2	simW=8.4e-07 fw=8.4e-07
MI6/I0/avD7_5	I6/avC10#3	avC6#46	I6/I0/avC9#6	vdd!#68
+ pmos1v#20ivpcell#20gpdk090	L=1e-07	W=8.4e-07
+ AD=1.344e-13	AS=2.352e-13	PD=1.16e-06	PS=2.24e-06	M=2	simW=8.4e-07 fw=8.4e-07
MI16/I0/avD7_5	I16/avC10#18	avC6#50	I16/I0/avC9	vdd!#68
+ pmos1v#20ivpcell#20gpdk090	L=1e-07	W=8.4e-07
+ AD=1.344e-13	AS=2.352e-13	PD=1.16e-06	PS=2.24e-06	M=2	simW=8.4e-07 fw=8.4e-07
MI14/I0/avD7_5	I14/avC10#18	avC6#134	I14/I0/avC9	vdd!#68
+ pmos1v#20ivpcell#20gpdk090	L=1e-07	W=8.4e-07
+ AD=1.344e-13	AS=2.352e-13	PD=1.16e-06	PS=2.24e-06	M=2	simW=8.4e-07 fw=8.4e-07
MI294/avD7_1	avC6#80	CLK#72	vdd!	vdd!#68
+ pmos1v#20ivpcell#20gpdk090	L=1e-07	W=7e-07
+ AD=1.12e-13	AS=1.288e-13	PD=1.02e-06	PS=1.208e-06	M=10	simW=7e-07 fw=7e-07
*
*
*       RESISTOR AND CAP/DIODE CARDS
*
Re3	Set#36	Set#30	    3.7069	$mt5	$X=14.675 $Y=3.57
Re1	avC6#54	avC6#39	    0.6286	$mt5
+ $X=10.37 $Y=4.305
Re2	avC6#40	avC6#54	    2.4338	$mt5
+ $X=10.37 $Y=2.265
Re4	avC6#70	avC6#64	    2.0265	$mt5
+ $X=15.61 $Y=4.3075
Re5	avC6#123	avC6#141	    0.6286	$mt5
+ $X=20.65 $Y=4.305
Re6	avC6#141	avC6#122	    0.9868	$mt5
+ $X=20.65 $Y=2.3675
Re7	avC6#153	avC6#151	    0.5905	$mt5
+ $X=25.885 $Y=4.277
Rf1	7_B0#22	7_B0#9	    2.4529	$mt4	$X=3.115 $Y=0.43
Rf15	avC8#13	avC8#10	    2.9651	$mt4
+ $X=18.0125 $Y=0.41
Rf2	CLK#22	CLK#11	    4.1498	$mt4	$X=6.7925 $Y=1.35
Rf27	CLK#138	CLK#134	    1.9881	$mt4
+ $X=23.7575 $Y=3.96
Rf28	CLK#134	CLK#113	    0.2415	$mt4
+ $X=21.14 $Y=3.96
Rf29	CLK#113	CLK#64	    1.9667	$mt4	$X=18.5475 $Y=3.96
Rf30	CLK#64	CLK#62	    0.4110	$mt4	$X=15.7575 $Y=3.96
Rf31	CLK#62	CLK#45	    3.6815	$mt4	$X=12.6 $Y=3.96
Rf11	Set#51	Set#43	    2.2390	$mt4	$X=18.855 $Y=4.56
Rf12	Set#43	Set#36	    0.6617	$mt4	$X=15.455 $Y=4.56
Rf13	Set#18	Set#36	    1.5702	$mt4	$X=12.835 $Y=4.56
Rf14	Set#18	Set#10	    2.3974	$mt4	$X=8.19 $Y=4.56
Rf33	Set#59	Set#30	    4.9900	$mt4	$X=20.633 $Y=2.635
Rf3	avC6#34	avC6#39	    1.4000	$mt4
+ $X=10.27 $Y=5.035
Rf5	avC6#38	avC6#40	    0.1153	$mt4
+ $X=10.2205 $Y=1.0075
Rf6	avC6#38	avC6#11	    3.9303	$mt4	$X=5.4 $Y=0.945
Rf7	avC6#40	avC6#35	    1.4000	$mt4
+ $X=10.39 $Y=1.065
Rf8	avC6#63	avC6#64	    1.4000	$mt4
+ $X=15.51 $Y=5.035
Rf9	avC6#120	avC6#122	    1.4000	$mt4	$X=20.65 $Y=1.2
Rf10	avC6#121	avC6#123	    1.4000	$mt4
+ $X=20.75 $Y=5.035
Rf16	avC6#152	avC6#151	    3.6365	$mt4
+ $X=23.2675 $Y=3.52
Rf17	avC6#152	avC6#70	    2.1531	$mt4
+ $X=18.13 $Y=3.52
Rf18	avC6#70	avC6#54	    3.6388	$mt4
+ $X=12.99 $Y=3.52
Rf19	avC6#152	avC6#141	    1.4000	$mt4
+ $X=20.65 $Y=3.52
Rf32	avC6#150	avC6#153	    1.4000	$mt4
+ $X=25.99 $Y=5.035
Rf20	avC9#67	avC9#56	    1.4440	$mt4
+ $X=24.2525 $Y=2.1
Rf21	avC9#56	avC9#51	    2.2388	$mt4	$X=19.94 $Y=2.1
Rf22	avC9#51	avC9#43	    0.7065	$mt4
+ $X=16.4875 $Y=2.1
Rf23	avC9#43	avC9#29	    0.8717	$mt4	$X=14.63 $Y=2.1
Rf24	avC9#29	avC9#24	    0.6468	$mt4
+ $X=12.8425 $Y=2.1
Rf25	avC9#24	avC9#13	    2.2390	$mt4	$X=9.46 $Y=2.1
Rf26	avC9#13	avC9#5	    1.0454	$mt4	$X=5.6125 $Y=2.1
Rg1	7_B0#7	7_B0#8	    2.9317	$mt3	$X=0.24 $Y=3.025
Rg2	7_B0#7	7_B0#9	    1.7361	$mt3	$X=0.24 $Y=0.83
Rg11	7_B0#21	7_B0#22	    1.8708	$mt3
+ $X=5.985 $Y=0.9875
Rg38	avC8#10	avC8#9	    1.4000	$mt3	$X=14.545 $Y=0.41
Rg55	avC8#12	avC8#13	    1.4000	$mt3
+ $X=21.48 $Y=0.41
Rg14	I33/avC7#6	I33/avC7#7	    3.3329	$mt3	$X=6.44 $Y=1.41
Rg6	vdd!#1	vdd!#2	    2.9520	$mt3	$X=4.14 $Y=0.7805
Rg9	vdd!#6	vdd!#8	    0.4295	$mt3	$X=4.98 $Y=1.395
Rg12	vdd!#11	vdd!#9	    1.8295	$mt3	$X=6.1 $Y=4.685
Rg15	vdd!#15	vdd!#16	    0.1520	$mt3
+ $X=6.94 $Y=5.3005
Rg22	vdd!#19	vdd!#18	    1.8295	$mt3
+ $X=11.34 $Y=4.685
Rg24	vdd!#23	vdd!#24	    0.1520	$mt3
+ $X=12.18 $Y=5.3005
Rg32	vdd!#25	vdd!#26	    2.9520	$mt3
+ $X=13.36 $Y=0.7805
Rg35	vdd!#36	vdd!#31	    0.5647	$mt3
+ $X=14.0425 $Y=2.225
Rg36	vdd!#36	vdd!#37	    1.8295	$mt3
+ $X=14.2 $Y=1.395
Rg46	vdd!#40	vdd!#39	    1.8295	$mt3
+ $X=16.58 $Y=4.685
Rg48	vdd!#44	vdd!#45	    0.1520	$mt3
+ $X=17.42 $Y=5.3005
Rg56	vdd!#48	vdd!#46	    1.8295	$mt3
+ $X=21.82 $Y=4.685
Rg58	vdd!#52	vdd!#53	    0.1520	$mt3
+ $X=22.66 $Y=5.3005
Rg64	vdd!#57	vdd!#58	    2.9520	$mt3
+ $X=25.7 $Y=0.7805
Rg71	vdd!#189	vdd!#63	    0.7805	$mt3
+ $X=27.385 $Y=2.6275
Rg72	vdd!#63	vdd!#64	    0.4295	$mt3
+ $X=26.54 $Y=1.395
Rg4	CLK#9	CLK#8	    1.1124	$mt3	$X=2.1745 $Y=1.355
Rg5	CLK#11	CLK#9	    1.4000	$mt3	$X=3.595 $Y=1.3525
Rg26	CLK#44	CLK#22	    1.1140	$mt3	$X=11.4705 $Y=1.355
Rg28	CLK#45	CLK#22	    1.0637	$mt3	$X=9.93 $Y=2.71
Rg29	CLK#46	CLK#45	    0.2990	$mt3	$X=9.93 $Y=4.37
Rg30	CLK#46	CLK#18	    0.9759	$mt3	$X=8.71 $Y=4.725
Rg31	CLK#46	CLK#38	    0.1339	$mt3	$X=10.0975 $Y=4.725
Rg39	CLK#61	CLK#60	9.392e-02	$mt3	$X=15.388 $Y=4.725
Rg40	CLK#61	CLK#43	    1.0159	$mt3	$X=14 $Y=4.725
Rg41	CLK#61	CLK#62	    1.6990	$mt3	$X=15.27 $Y=4.37
Rg44	CLK#64	CLK#63	    3.9783	$mt3	$X=16.24 $Y=2.5825
Rg51	CLK#112	CLK#68	    1.1140	$mt3	$X=19.358 $Y=4.725
Rg52	CLK#113	CLK#112	    1.7243	$mt3
+ $X=20.85 $Y=4.37
Rg60	CLK#133	CLK#132	    1.1140	$mt3
+ $X=23.763 $Y=1.355
Rg61	CLK#133	CLK#123	    0.3700	$mt3
+ $X=21.898 $Y=1.355
Rg62	CLK#134	CLK#123	    2.5093	$mt3
+ $X=21.43 $Y=2.6575
Rg63	CLK#133	CLK#121	    1.4000	$mt3
+ $X=22.37 $Y=1.355
Rg66	CLK#138	CLK#139	    1.7224	$mt3
+ $X=26.09 $Y=4.3725
Rg67	CLK#139	CLK#125	    1.1140	$mt3
+ $X=24.598 $Y=4.725
Rg10	Set#10	Set#9	    1.4000	$mt3	$X=5.385 $Y=4.56
Rg21	Set#18	Set#16	    1.4000	$mt3	$X=10.995 $Y=4.565
Rg37	Set#30	Set#29	    1.4000	$mt3	$X=14.395 $Y=2.635
Rg45	Set#43	Set#41	    1.4000	$mt3	$X=16.235 $Y=4.565
Rg54	Set#51	Set#49	    1.4000	$mt3	$X=21.475 $Y=4.565
Rg70	Set#59	Set#58	    1.4000	$mt3	$X=26.87 $Y=2.635
Rg3	avC6#11	avC6#9	    1.4000	$mt3	$X=0.81 $Y=1.045
Rg17	avC6#34	avC6#32	    2.8000	$mt3
+ $X=10.27 $Y=5.035
Rg19	avC6#35	avC6#37	    0.1375	$mt3
+ $X=10.2105 $Y=1.055
Rg20	avC6#38	avC6#37	    1.4000	$mt3
+ $X=10.03 $Y=1.045
Rg43	avC6#63	avC6#61	    2.8000	$mt3
+ $X=15.51 $Y=5.035
Rg50	avC6#120	avC6#71	    2.8000	$mt3	$X=20.65 $Y=1.2
Rg53	avC6#121	avC6#117	    2.8000	$mt3
+ $X=20.75 $Y=5.035
Rg68	avC6#150	avC6#148	    2.8000	$mt3
+ $X=25.99 $Y=5.035
Rg7	avC9#5	avC9#4	    1.6180	$mt3	$X=4.38 $Y=2.295
Rg16	avC9#13	avC9#12	    2.0811	$mt3	$X=6.84 $Y=2.89
Rg25	avC9#24	avC9#23	    2.0811	$mt3
+ $X=12.08 $Y=2.89
Rg33	avC9#29	avC9#28	    1.6180	$mt3
+ $X=13.6 $Y=2.295
Rg42	avC9#43	avC9#40	    3.1620	$mt3
+ $X=15.655 $Y=1.648
Rg49	avC9#51	avC9#50	    2.0833	$mt3
+ $X=17.32 $Y=2.8875
Rg59	avC9#56	avC9#55	    2.0811	$mt3
+ $X=22.56 $Y=2.89
Rg65	avC9#67	avC9#63	    1.6180	$mt3
+ $X=25.94 $Y=2.295
Rg57	I14/avC10#5	I14/avC10#6	    1.9117	$mt3
+ $X=22.12 $Y=4.965
Rg47	I15/avC10#6	I15/avC10#5	    3.3117	$mt3
+ $X=16.88 $Y=4.965
Rg23	I16/avC10#5	I16/avC10#6	    1.9117	$mt3
+ $X=11.64 $Y=4.965
Rg13	I18/avC10#6	I18/avC10#5	    3.3117	$mt3	$X=6.4 $Y=4.965
Rg69	I13/avC10#14	I13/avC10#15	    1.9117	$mt3
+ $X=26.24 $Y=1.115
Rg34	I6/avC10#14	I6/avC10#15	    1.9117	$mt3
+ $X=13.9 $Y=1.115
Rg8	I17/avC10#14	I17/avC10#15	    1.9117	$mt3
+ $X=4.68 $Y=1.115
Rh1	7_B0#7	7_B0#5	    1.4000	$mt2	$X=0.235 $Y=1.23
Rh2	7_B0	7_B0#8	    1.4000	$mt2	$X=0.24 $Y=4.82
Rh20	7_B0#20	7_B0#21	    1.4000	$mt2
+ $X=5.985 $Y=1.545
Rh32	avC12#11	avC12#3	    1.7650	$mt2
+ $X=7.5755 $Y=0.78
Rh34	avC12#13	avC12#12	    1.5788	$mt2
+ $X=8.398 $Y=1.92
Rh35	avC12#12	avC12#4	    1.5863	$mt2
+ $X=7.668 $Y=1.92
Rh71	avC8#9	avC8#4	    3.4950	$mt2	$X=14.545 $Y=0.9075
Rh98	avC8#11	avC8#12	    2.8000	$mt2
+ $X=21.48 $Y=0.41
Rh133	avC16#9	avC16	    2.0157	$mt2	$X=26.55 $Y=3.665
Rh24	I33/avC7#6	I33/avC7#2	    1.6072	$mt2	$X=6.19 $Y=2.04
Rh12	vdd!#4	vdd!#2	    1.4000	$mt2	$X=4.14 $Y=0.59
Rh15	vdd!#7	vdd!#6	    1.4000	$mt2	$X=4.98 $Y=1.995
Rh16	vdd!#8	vdd!#1	    1.7531	$mt2	$X=4.56 $Y=0.965
Rh21	vdd!#10	vdd!#9	    1.4000	$mt2	$X=6.1 $Y=4.085
Rh25	vdd!#13	vdd!#15	    2.8000	$mt2	$X=6.94 $Y=5.49
Rh26	vdd!#16	vdd!#11	    1.7531	$mt2
+ $X=6.52 $Y=5.115
Rh43	vdd!#17	vdd!#18	    1.4000	$mt2
+ $X=11.34 $Y=4.085
Rh51	vdd!#21	vdd!#23	    2.8000	$mt2
+ $X=12.18 $Y=5.49
Rh52	vdd!#24	vdd!#19	    1.7531	$mt2
+ $X=11.76 $Y=5.115
Rh61	vdd!#28	vdd!#26	    1.4000	$mt2
+ $X=13.36 $Y=0.59
Rh65	vdd!	vdd!#31	    2.8160	$mt2	$X=13.89 $Y=3.17
Rh67	vdd!#32	vdd!#36	    1.4000	$mt2
+ $X=14.2 $Y=1.995
Rh68	vdd!#37	vdd!#25	    0.3531	$mt2
+ $X=13.78 $Y=0.965
Rh82	vdd!#38	vdd!#39	    1.4000	$mt2
+ $X=16.58 $Y=4.085
Rh85	vdd!#42	vdd!#44	    2.8000	$mt2
+ $X=17.42 $Y=5.49
Rh86	vdd!#45	vdd!#40	    1.7531	$mt2	$X=17 $Y=5.115
Rh100	vdd!#47	vdd!#46	    1.4000	$mt2
+ $X=21.82 $Y=4.085
Rh105	vdd!#50	vdd!#52	    2.8000	$mt2
+ $X=22.66 $Y=5.49
Rh106	vdd!#53	vdd!#48	    1.7531	$mt2
+ $X=22.24 $Y=5.115
Rh123	vdd!#55	vdd!#58	    1.4000	$mt2	$X=25.7 $Y=0.59
Rh130	vdd!#59	vdd!#63	    1.4000	$mt2
+ $X=26.54 $Y=1.995
Rh131	vdd!#64	vdd!#57	    1.7531	$mt2
+ $X=26.12 $Y=0.965
Rh135	vdd!#73	vdd!#189	    1.4000	$mt2
+ $X=27.38 $Y=3.12
Rh3	CLK#2	CLK#8	    2.8000	$mt2	$X=0.81 $Y=1.355
Rh8	CLK#10	CLK#9	    2.9055	$mt2	$X=3.5975 $Y=1.2105
Rh29	CLK#17	CLK#18	    1.5055	$mt2	$X=7.4825 $Y=4.8705
Rh37	CLK#24	CLK#22	    2.8000	$mt2	$X=10.03 $Y=1.355
Rh41	CLK#37	CLK#38	    2.8000	$mt2	$X=10.27 $Y=4.725
Rh55	CLK#40	CLK#43	    1.5055	$mt2	$X=12.7225 $Y=4.8705
Rh56	CLK#42	CLK#44	    1.5055	$mt2	$X=12.8175 $Y=1.2105
Rh80	CLK#59	CLK#60	    2.8000	$mt2	$X=15.51 $Y=4.725
Rh84	CLK#65	CLK#63	    1.6513	$mt2	$X=16.5705 $Y=1.2
Rh89	CLK#67	CLK#68	    1.5055	$mt2	$X=17.9625 $Y=4.8705
Rh97	CLK#111	CLK#112	    2.8000	$mt2
+ $X=20.75 $Y=4.725
Rh103	CLK#121	CLK#123	    1.7780	$mt2
+ $X=21.898 $Y=1.355
Rh104	CLK#121	CLK#117	    1.4000	$mt2
+ $X=22.37 $Y=1.355
Rh109	CLK#124	CLK#125	    2.9055	$mt2
+ $X=23.2025 $Y=4.8705
Rh119	CLK#131	CLK#132	    1.5055	$mt2
+ $X=25.1575 $Y=1.2105
Rh128	CLK#145	CLK#139	    2.8000	$mt2
+ $X=25.99 $Y=4.725
Rh18	Set#7	Set#1	    2.3233	$mt2	$X=5.275 $Y=2.39
Rh19	Set#8	Set#9	    2.8000	$mt2	$X=5.385 $Y=4.56
Rh42	Set#17	Set#16	    2.8000	$mt2	$X=10.995 $Y=4.565
Rh72	Set	Set#29	    2.8000	$mt2	$X=14.395 $Y=2.635
Rh81	Set#42	Set#41	    2.8000	$mt2	$X=16.235 $Y=4.565
Rh99	Set#50	Set#49	    2.8000	$mt2	$X=21.475 $Y=4.565
Rh134	Set#57	Set#58	    2.8000	$mt2	$X=26.87 $Y=2.635
Rh4	avC6#8	avC6#7	    2.3124	$mt2	$X=2.635 $Y=1.245
Rh5	avC6#8	avC6#9	    1.4000	$mt2	$X=0.81 $Y=1.045
Rh6	avC6#8	avC6#4	    1.4000	$mt2	$X=0.81 $Y=1.045
Rh39	avC6#32	avC6#16	    0.9117	$mt2
+ $X=9.2575 $Y=5.01
Rh40	avC6#32	avC6#29	    1.4000	$mt2
+ $X=10.27 $Y=5.035
Rh45	avC6#43	avC6#42	    0.7727	$mt2
+ $X=11.855 $Y=1.245
Rh46	avC6#44	avC6#43	    0.1323	$mt2
+ $X=10.2105 $Y=1.055
Rh47	avC6#44	avC6#26	    1.4000	$mt2
+ $X=10.03 $Y=1.045
Rh48	avC6#43	avC6#35	    1.4000	$mt2
+ $X=10.39 $Y=1.065
Rh49	avC6#44	avC6#37	    1.4000	$mt2
+ $X=10.03 $Y=1.045
Rh78	avC6#61	avC6#53	    0.9117	$mt2
+ $X=14.4975 $Y=5.01
Rh79	avC6#61	avC6#58	    1.4000	$mt2
+ $X=15.51 $Y=5.035
Rh95	avC6#66	avC6#117	    0.9117	$mt2
+ $X=19.7375 $Y=5.01
Rh96	avC6#117	avC6#114	    1.4000	$mt2
+ $X=20.75 $Y=5.035
Rh113	avC6#130	avC6#131	    0.9093	$mt2
+ $X=23.3325 $Y=1.07
Rh114	avC6#130	avC6#71	    0.7093	$mt2
+ $X=21.49 $Y=1.07
Rh116	avC6#130	avC6#128	    1.4000	$mt2
+ $X=22.37 $Y=1.045
Rh126	avC6#148	avC6#133	    0.9117	$mt2
+ $X=24.9775 $Y=5.01
Rh127	avC6#148	avC6#143	    1.4000	$mt2
+ $X=25.99 $Y=5.035
Rh13	avC9#3	avC9#4	    1.4000	$mt2	$X=4.07 $Y=2.455
Rh28	avC9#9	avC9#12	    1.4000	$mt2	$X=7.01 $Y=3.625
Rh54	avC9#21	avC9#23	    1.4000	$mt2
+ $X=12.25 $Y=3.625
Rh62	avC9#27	avC9#28	    1.4000	$mt2
+ $X=13.29 $Y=2.455
Rh74	avC9#42	avC9#40	    0.2579	$mt2
+ $X=15.3975 $Y=1.42
Rh75	avC9#42	avC9#38	    0.2700	$mt2
+ $X=15.14 $Y=1.1275
Rh76	avC9#42	avC9#35	    0.1231	$mt2
+ $X=15.142 $Y=1.4895
Rh88	avC9#48	avC9#50	    1.4000	$mt2
+ $X=17.49 $Y=3.625
Rh108	avC9#52	avC9#55	    1.4000	$mt2
+ $X=22.73 $Y=3.625
Rh124	avC9#62	avC9#63	    1.4000	$mt2
+ $X=25.63 $Y=2.455
Rh101	I14/avC10	I14/avC10#5	    1.5200	$mt2
+ $X=21.9705 $Y=5.57
Rh107	I14/avC10#7	I14/avC10#6	    1.6152	$mt2
+ $X=22.36 $Y=4.355
Rh110	I14/avC10#17	I14/avC10#11	    3.1888	$mt2
+ $X=23.0975 $Y=4.035
Rh118	I14/I0/avC9#11	I14/I0/avC9#7	    2.9790	$mt2
+ $X=24.4905 $Y=3.9425
Rh83	I15/avC10	I15/avC10#6	    0.1200	$mt2
+ $X=16.7305 $Y=5.57
Rh87	I15/avC10#7	I15/avC10#5	    1.6152	$mt2
+ $X=17.12 $Y=4.355
Rh90	I15/avC10#17	I15/avC10#11	    3.1888	$mt2
+ $X=17.8575 $Y=4.035
Rh93	I15/I0/avC9#11	I15/I0/avC9#7	    2.9790	$mt2
+ $X=19.2505 $Y=3.9425
Rh44	I16/avC10	I16/avC10#5	    1.5200	$mt2
+ $X=11.4905 $Y=5.57
Rh53	I16/avC10#7	I16/avC10#6	    1.6152	$mt2
+ $X=11.88 $Y=4.355
Rh59	I16/avC10#17	I16/avC10#11	    3.1888	$mt2
+ $X=12.6175 $Y=4.035
Rh70	I16/I0/avC9#11	I16/I0/avC9#7	    2.9790	$mt2
+ $X=14.0105 $Y=3.9425
Rh23	I18/avC10	I18/avC10#6	    0.1200	$mt2
+ $X=6.2505 $Y=5.57
Rh27	I18/avC10#7	I18/avC10#5	    1.6152	$mt2
+ $X=6.64 $Y=4.355
Rh30	I18/avC10#17	I18/avC10#11	    3.1888	$mt2
+ $X=7.3775 $Y=4.035
Rh36	I18/I0/avC9#11	I18/I0/avC9#7	    2.9790	$mt2
+ $X=8.7705 $Y=3.9425
Rh122	I13/avC10#13	I13/avC10#2	    1.7888	$mt2
+ $X=25.2625 $Y=2.045
Rh129	I13/avC10#9	I13/avC10#14	    3.0152	$mt2	$X=26 $Y=1.725
Rh132	I13/avC10#18	I13/avC10#15	    0.1200	$mt2
+ $X=26.3905 $Y=0.51
Rh117	I13/I0/avC9#8	I13/I0/avC9#4	    2.9790	$mt2
+ $X=23.8705 $Y=2.1375
Rh60	I6/avC10#13	I6/avC10#2	    1.7888	$mt2
+ $X=12.9225 $Y=2.045
Rh66	I6/avC10#9	I6/avC10#14	    3.0152	$mt2
+ $X=13.66 $Y=1.725
Rh69	I6/avC10#18	I6/avC10#15	    0.1200	$mt2
+ $X=14.0505 $Y=0.51
Rh50	I6/I0/avC9#5	I6/I0/avC9#4	    2.9790	$mt2
+ $X=11.5305 $Y=2.1375
Rh11	I17/avC10#13	I17/avC10#2	    1.7888	$mt2
+ $X=3.7025 $Y=2.045
Rh14	I17/avC10#9	I17/avC10#14	    3.0152	$mt2
+ $X=4.44 $Y=1.725
Rh17	I17/avC10#18	I17/avC10#15	    0.1200	$mt2
+ $X=4.8305 $Y=0.51
Rh7	I17/I0/avC9#8	I17/I0/avC9#4	    2.9790	$mt2
+ $X=2.3105 $Y=2.1375
Ri731	gnd!#2	gnd!#4	    0.3533	$mt1	$X=26.54 $Y=5.742
Ri732	gnd!#6	gnd!#4	1.333e-02	$mt1	$X=24.1795 $Y=6.01
Ri733	gnd!#4	gnd!	    4.7581	$mt1	$X=27.8975 $Y=3.368
Ri738	gnd!#13	gnd!	    1.4361	$mt1	$X=21.9225 $Y=0.08
Ri739	gnd!#13	gnd!	    1.3906	$mt1	$X=21.606 $Y=0.08
Ri742	gnd!#15	gnd!	    1.4028	$mt1	$X=5.2515 $Y=0.07
Ri743	gnd!#16	gnd!	    1.6705	$mt1	$X=5.2515 $Y=0.07
Ri748	gnd!#24	gnd!#13	    0.3647	$mt1
+ $X=21.82 $Y=0.3375
Ri762	gnd!#5	gnd!	   15.5738	$mt1	$X=13.556 $Y=0.15
Ri771	gnd!#57	gnd!	    0.3533	$mt1	$X=9.48 $Y=0.3375
Ri773	gnd!#60	gnd!	    0.4133	$mt1	$X=8.96 $Y=0.35
Ri775	gnd!#63	gnd!	    0.3733	$mt1	$X=7.38 $Y=0.29
Ri777	gnd!#66	gnd!	    0.4533	$mt1	$X=6.02 $Y=0.41
Ri779	gnd!#5	gnd!	   15.0533	$mt1	$X=5.2515 $Y=0.08
Ri784	gnd!#75	gnd!	    0.3533	$mt1	$X=0.26 $Y=0.3375
Ri786	gnd!#77	gnd!#4	    1.4099	$mt1	$X=21.5005 $Y=6
Ri787	gnd!#79	gnd!#77	    0.3647	$mt1
+ $X=21.3 $Y=5.7425
Ri789	gnd!#77	gnd!#4	    1.2914	$mt1	$X=21.164 $Y=6
Ri794	gnd!#87	gnd!#4	    1.2901	$mt1	$X=16.2605 $Y=6
Ri795	gnd!#89	gnd!#87	    0.3647	$mt1
+ $X=16.06 $Y=5.7425
Ri797	gnd!#87	gnd!#4	    1.2914	$mt1	$X=15.924 $Y=6
Ri802	gnd!#97	gnd!#4	    1.2901	$mt1	$X=11.0205 $Y=6
Ri803	gnd!#99	gnd!#97	    0.3647	$mt1
+ $X=10.82 $Y=5.7425
Ri805	gnd!#97	gnd!#4	    1.2912	$mt1	$X=10.684 $Y=6
Ri810	gnd!#4	gnd!#107	    1.7552	$mt1	$X=5.565 $Y=6
Ri811	gnd!#109	gnd!#107	    0.3533	$mt1
+ $X=4.98 $Y=5.745
Ri813	gnd!#107	gnd!#111	    1.3300	$mt1	$X=3.3745 $Y=6
Ri814	gnd!#113	gnd!#111	    0.3867	$mt1	$X=2.26 $Y=5.72
Ri816	gnd!#2	gnd!#1	   15.0000	$mt1	$X=26.54 $Y=5.445
Ri817	gnd!#6	gnd!#5	   15.0000	$mt1	$X=26.56 $Y=6.04
Ri820	gnd!#13	gnd!#5	   15.0000	$mt1	$X=21.8 $Y=0.04
Ri821	gnd!#15	gnd!#5	   15.0000	$mt1	$X=9.46 $Y=0.04
Ri822	gnd!#16	gnd!#5	   15.0000	$mt1	$X=0.24 $Y=0.04
Ri825	gnd!#24	gnd!#23	   15.0000	$mt1
+ $X=21.82 $Y=0.635
Ri836	gnd!#57	gnd!#56	   15.0000	$mt1
+ $X=9.48 $Y=0.635
Ri837	gnd!#60	gnd!#59	   15.0000	$mt1	$X=8.96 $Y=0.72
Ri838	gnd!#63	gnd!#62	   15.0000	$mt1	$X=7.38 $Y=0.66
Ri839	gnd!#66	gnd!#65	   15.0000	$mt1	$X=6.02 $Y=0.78
Ri842	gnd!#75	gnd!#74	   15.0000	$mt1
+ $X=0.26 $Y=0.635
Ri843	gnd!#77	gnd!#5	   15.0000	$mt1	$X=21.32 $Y=6.04
Ri844	gnd!#79	gnd!#78	   15.0000	$mt1
+ $X=21.3 $Y=5.445
Ri847	gnd!#87	gnd!#5	   15.0000	$mt1	$X=16.08 $Y=6.04
Ri848	gnd!#89	gnd!#88	   15.0000	$mt1
+ $X=16.06 $Y=5.445
Ri851	gnd!#97	gnd!#5	   15.0000	$mt1	$X=10.84 $Y=6.04
Ri852	gnd!#99	gnd!#98	   15.0000	$mt1
+ $X=10.82 $Y=5.445
Ri855	gnd!#109	gnd!#108	   15.0000	$mt1	$X=4.98 $Y=5.45
Ri856	gnd!#113	gnd!#112	   15.0000	$mt1	$X=2.26 $Y=5.4
Ri1	7_B0#5	7_B0#3	    1.4440	$mt1	$X=0.285 $Y=1.22
Ri14	7_B0#12	7_B0#14	    0.3867	$mt1
+ $X=1.84 $Y=5.0805
Ri15	7_B0#14	7_B0	    1.0510	$mt1	$X=1.075 $Y=4.82
Ri17	7_B0#14	7_B0#16	    0.4133	$mt1	$X=1.84 $Y=4.6
Ri19	7_B0#11	7_B0#12	   15.0000	$mt1	$X=1.84 $Y=5.4
Ri20	7_B0#15	7_B0#16	   15.0000	$mt1	$X=1.84 $Y=4.2
Ri80	7_B0#18	7_B0#20	    1.6602	$mt1
+ $X=5.755 $Y=1.545
Ri99	avC10#2	avC10#4	    0.4400	$mt1
+ $X=4.56 $Y=1.4805
Ri100	avC10#4	avC10#5	    0.2236	$mt1
+ $X=4.56 $Y=1.1005
Ri101	avC10#5	avC10#7	    0.2236	$mt1
+ $X=4.56 $Y=0.805
Ri103	avC10#5	avC10#9	    0.6686	$mt1
+ $X=5.0175 $Y=0.93
Ri104	avC10#9	avC10#10	   10.6863	$mt1
+ $X=6.0075 $Y=1.12
Ri105	avC10	avC10#2	    7.5000	$mt1	$X=4.56 $Y=1.93
Ri106	avC10#6	avC10#7	   15.0000	$mt1	$X=4.56 $Y=0.59
Ri107	avC12	avC12#2	   15.0000	$mt1	$X=6.86 $Y=0.78
Ri108	avC12#2	avC12#3	    1.4046	$mt1
+ $X=6.8475 $Y=0.78
Ri117	avC12#4	avC12#5	8.857e-02	$mt1
+ $X=7.2925 $Y=2.075
Ri119	avC12#6	avC12#5	    5.0000	$mt1
+ $X=7.28 $Y=2.075
Ri141	avC12#8	avC12#11	2.892e-03	$mt1
+ $X=8.3075 $Y=0.755
Ri142	avC12#11	avC12#12	    2.1735	$mt1
+ $X=8.1725 $Y=0.895
Ri143	avC12#9	avC12#8	   15.0000	$mt1	$X=8.32 $Y=0.72
Ri163	avC12#16	avC12#19	    0.8150	$mt1
+ $X=9.3075 $Y=1.16
Ri164	avC12#19	avC12#13	2.308e-02	$mt1	$X=8.83 $Y=1.92
Ri165	avC12#13	avC12#20	   15.0046	$mt1
+ $X=8.7525 $Y=1.92
Ri276	avC8#2	avC8#4	    0.3744	$mt1	$X=13.78 $Y=1.553
Ri277	avC8#4	avC8#5	4.000e-02	$mt1	$X=13.78 $Y=1.2775
Ri278	avC8#5	avC8#7	    0.4533	$mt1	$X=13.78 $Y=0.9755
Ri280	avC8	avC8#2	    7.5000	$mt1	$X=13.78 $Y=1.93
Ri281	avC8#6	avC8#7	   15.0000	$mt1	$X=13.78 $Y=0.59
Ri448	avC8#14	avC8#11	    0.6112	$mt1
+ $X=21.79 $Y=1.055
Ri563	avC16	avC16#3	    1.9264	$mt1	$X=26.12 $Y=2.395
Ri565	avC16#3	avC16#5	    0.4400	$mt1
+ $X=26.12 $Y=1.4805
Ri566	avC16#5	avC16#7	    0.4533	$mt1
+ $X=26.12 $Y=0.9755
Ri568	avC16#2	avC16#3	    7.5000	$mt1
+ $X=26.12 $Y=1.93
Ri569	avC16#6	avC16#7	   15.0000	$mt1
+ $X=26.12 $Y=0.59
Ri578	avC16#10	avC16#9	    0.8999	$mt1
+ $X=26.82 $Y=4.2875
Ri210	avC13#6	avC13#8	    0.2303	$mt1
+ $X=11.76 $Y=5.2705
Ri211	avC13#8	avC13	    0.6892	$mt1	$X=11.305 $Y=5.14
Ri213	avC13#8	avC13#10	    0.2169	$mt1
+ $X=11.76 $Y=4.975
Ri214	avC13#10	avC13#12	    0.4400	$mt1
+ $X=11.76 $Y=4.6005
Ri216	avC13#5	avC13#6	   15.0000	$mt1
+ $X=11.76 $Y=5.49
Ri217	avC13#11	avC13#12	    7.5000	$mt1
+ $X=11.76 $Y=4.15
Ri88	avC11#6	avC11#8	    0.2269	$mt1
+ $X=6.52 $Y=5.273
Ri89	avC11#8	avC11#9	    1.0786	$mt1
+ $X=5.7925 $Y=5.145
Ri90	avC11#9	avC11	9.200e-02	$mt1	$X=4.97 $Y=4.88
Ri91	avC11#8	avC11#10	    0.2203	$mt1
+ $X=6.52 $Y=4.9775
Ri92	avC11#10	avC11#12	    0.4400	$mt1
+ $X=6.52 $Y=4.6005
Ri94	avC11#5	avC11#6	   15.0000	$mt1	$X=6.52 $Y=5.49
Ri95	avC11#11	avC11#12	    7.5000	$mt1	$X=6.52 $Y=4.15
Ri335	avC14#6	avC14#8	    0.2303	$mt1	$X=17 $Y=5.2705
Ri336	avC14#8	avC14	    0.6892	$mt1	$X=16.545 $Y=5.14
Ri338	avC14#8	avC14#10	    0.2169	$mt1	$X=17 $Y=4.975
Ri339	avC14#10	avC14#12	    0.4400	$mt1	$X=17 $Y=4.6005
Ri341	avC14#5	avC14#6	   15.0000	$mt1	$X=17 $Y=5.49
Ri342	avC14#11	avC14#12	    7.5000	$mt1	$X=17 $Y=4.15
Ri450	avC15#6	avC15#8	    0.2303	$mt1
+ $X=22.24 $Y=5.2705
Ri451	avC15#8	avC15	    0.6892	$mt1	$X=21.785 $Y=5.14
Ri453	avC15#8	avC15#10	    0.2169	$mt1
+ $X=22.24 $Y=4.975
Ri454	avC15#10	avC15#12	    0.4400	$mt1
+ $X=22.24 $Y=4.6005
Ri456	avC15#5	avC15#6	   15.0000	$mt1
+ $X=22.24 $Y=5.49
Ri457	avC15#11	avC15#12	    7.5000	$mt1
+ $X=22.24 $Y=4.15
Ri64	avC7#6	avC7#8	    0.3833	$mt1	$X=4.44 $Y=5.158
Ri65	avC7#8	avC7	    1.0229	$mt1	$X=3.3825 $Y=4.9
Ri67	avC7#8	avC7#11	    0.3089	$mt1	$X=4.44 $Y=4.66
Ri69	avC7#5	avC7#6	   15.0000	$mt1	$X=4.44 $Y=5.45
Ri70	avC7#10	avC7#11	   15.0000	$mt1	$X=4.5 $Y=4.385
Ri75	I33/avC7	I33/avC7#2	   10.2625	$mt1
+ $X=5.94 $Y=2.308
Ri76	I33/avC7#2	I33/avC7#4	2.500e-02	$mt1
+ $X=5.935 $Y=2.02
Ri78	I33/avC7#3	I33/avC7#4	   15.0000	$mt1	$X=5.92 $Y=1.99
Ri96	I33/avC7#8	I33/avC7#9	   15.0000	$mt1	$X=6.44 $Y=0.78
Ri97	I33/avC7#9	I33/avC7#7	    1.4000	$mt1	$X=6.44 $Y=0.78
Ri149	I33/avC7#11	I33/avC7#17	    0.4700	$mt1
+ $X=8.32 $Y=2.303
Ri151	I33/avC7#17	I33/avC7#15	    0.7347	$mt1
+ $X=8.32 $Y=1.388
Ri152	I33/avC7#16	I33/avC7#17	   15.0000	$mt1	$X=8.32 $Y=1.92
Ri127	I33/avC5#2	I33/avC5#4	    0.5183	$mt1	$X=7.8 $Y=1.107
Ri128	I33/avC5#4	I33/avC5#6	    0.9750	$mt1
+ $X=7.27 $Y=1.375
Ri130	I33/avC5#4	I33/avC5#8	   10.5639	$mt1
+ $X=7.68 $Y=1.8225
Ri131	I33/avC5	I33/avC5#2	   15.0000	$mt1	$X=7.8 $Y=0.66
Ri132	I33/avC5#5	I33/avC5#6	    5.0000	$mt1
+ $X=6.86 $Y=2.075
Ri523	I14/I0/avC8	I14/I0/avC8#6	    0.9970	$mt1
+ $X=24.4905 $Y=5.145
Ri526	I14/I0/avC8#6	I14/I0/avC8#5	   15.0000	$mt1
+ $X=24.96 $Y=5.535
Ri372	I15/I0/avC8	I15/I0/avC8#6	    0.9970	$mt1
+ $X=19.2505 $Y=5.145
Ri375	I15/I0/avC8#6	I15/I0/avC8#5	   15.0000	$mt1
+ $X=19.72 $Y=5.535
Ri291	I16/I0/avC8	I16/I0/avC8#6	    0.9970	$mt1
+ $X=14.0105 $Y=5.145
Ri294	I16/I0/avC8#6	I16/I0/avC8#5	   15.0000	$mt1
+ $X=14.48 $Y=5.535
Ri154	I18/I0/avC8	I18/I0/avC8#6	    0.9970	$mt1
+ $X=8.7705 $Y=5.145
Ri157	I18/I0/avC8#6	I18/I0/avC8#5	   15.0000	$mt1
+ $X=9.24 $Y=5.535
Ri511	I13/I0/avC8#6	I13/I0/avC8	    0.9970	$mt1
+ $X=24.34 $Y=0.815
Ri514	I13/I0/avC8#6	I13/I0/avC8#5	   15.0000	$mt1
+ $X=23.4 $Y=0.545
Ri225	I6/I0/avC8#6	I6/I0/avC8	    0.9970	$mt1	$X=12 $Y=0.815
Ri228	I6/I0/avC8#6	I6/I0/avC8#5	   15.0000	$mt1
+ $X=11.06 $Y=0.545
Ri38	I17/I0/avC8#6	I17/I0/avC8	    0.9970	$mt1
+ $X=2.78 $Y=0.815
Ri41	I17/I0/avC8#6	I17/I0/avC8#5	   15.0000	$mt1
+ $X=1.84 $Y=0.545
Ri59	vdd!#3	vdd!#4	   15.0000	$mt1	$X=4.14 $Y=0.59
Ri113	vdd!#12	vdd!#13	   15.0000	$mt1	$X=6.94 $Y=5.49
Ri233	vdd!#20	vdd!#21	   15.0000	$mt1
+ $X=12.18 $Y=5.49
Ri267	vdd!#27	vdd!#28	   15.0000	$mt1
+ $X=13.36 $Y=0.59
Ri287	vdd!#32	vdd!#34	    7.5000	$mt1	$X=14.2 $Y=1.93
Ri347	vdd!#41	vdd!#42	   15.0000	$mt1
+ $X=17.42 $Y=5.49
Ri472	vdd!#49	vdd!#50	   15.0000	$mt1
+ $X=22.66 $Y=5.49
Ri541	vdd!#54	vdd!#55	   15.0000	$mt1	$X=25.7 $Y=0.59
Ri574	vdd!#59	vdd!#61	    7.5000	$mt1
+ $X=26.54 $Y=1.93
Ri582	vdd!#69	vdd!#66	    0.4867	$mt1
+ $X=26.54 $Y=3.6755
Ri583	vdd!#69	vdd!	8.667e-02	$mt1	$X=26.48 $Y=3.2105
Ri584	vdd!#47	vdd!	    0.5282	$mt1	$X=21.82 $Y=3.5225
Ri585	vdd!#70	vdd!#47	3.333e-02	$mt1
+ $X=21.8195 $Y=4.1475
Ri586	vdd!#72	vdd!#70	1.333e-03	$mt1
+ $X=21.8195 $Y=4.1475
Ri587	vdd!#73	vdd!	    2.2113	$mt1	$X=27.0995 $Y=3.04
Ri596	vdd!#86	vdd!	8.667e-02	$mt1	$X=21.88 $Y=2.87
Ri597	vdd!#88	vdd!#86	    0.4867	$mt1
+ $X=21.82 $Y=2.405
Ri599	vdd!#90	vdd!	    0.7132	$mt1	$X=21.4105 $Y=3.04
Ri600	vdd!#90	vdd!#68	   15.0909	$mt1
+ $X=21.26 $Y=2.87
Ri601	vdd!#90	vdd!	    2.0182	$mt1	$X=21.088 $Y=3.04
Ri603	vdd!	vdd!#93	    0.1533	$mt1	$X=20.79 $Y=2.07
Ri604	vdd!#93	vdd!	   15.1533	$mt1	$X=20.79 $Y=2.07
Ri605	vdd!#94	vdd!#90	9.152e-02	$mt1
+ $X=21.24 $Y=3.21
Ri606	vdd!#96	vdd!#94	    0.4867	$mt1
+ $X=21.3 $Y=3.675
Ri609	vdd!	vdd!#100	    0.1533	$mt1	$X=19.95 $Y=2.07
Ri610	vdd!#100	vdd!	   15.1533	$mt1	$X=19.95 $Y=2.07
Ri614	vdd!	vdd!#106	    0.1533	$mt1	$X=19.11 $Y=2.07
Ri615	vdd!#106	vdd!	   15.1533	$mt1	$X=19.11 $Y=2.07
Ri619	vdd!	vdd!#112	    0.1533	$mt1	$X=18.27 $Y=2.07
Ri620	vdd!#112	vdd!	   15.1533	$mt1	$X=18.27 $Y=2.07
Ri622	vdd!	vdd!#115	    0.1533	$mt1	$X=17.43 $Y=2.07
Ri623	vdd!#115	vdd!	   15.1533	$mt1	$X=17.43 $Y=2.07
Ri625	vdd!	vdd!#118	    0.1533	$mt1	$X=16.59 $Y=2.07
Ri626	vdd!#118	vdd!	   15.1533	$mt1	$X=16.59 $Y=2.07
Ri627	vdd!#68	vdd!	   15.0830	$mt1	$X=16.12 $Y=2.87
Ri628	vdd!#38	vdd!	    0.5145	$mt1	$X=16.58 $Y=3.5225
Ri629	vdd!#119	vdd!#38	3.333e-02	$mt1
+ $X=16.5795 $Y=4.1475
Ri630	vdd!#121	vdd!#119	1.333e-03	$mt1
+ $X=16.5795 $Y=4.1475
Ri633	vdd!#125	vdd!	9.937e-02	$mt1	$X=16 $Y=3.21
Ri634	vdd!#127	vdd!#125	    0.4867	$mt1
+ $X=16.06 $Y=3.675
Ri636	vdd!#68	vdd!	   15.0867	$mt1	$X=15.14 $Y=2.87
Ri648	vdd!#17	vdd!	    0.5130	$mt1	$X=11.34 $Y=3.5225
Ri649	vdd!#144	vdd!#17	3.333e-02	$mt1
+ $X=11.3395 $Y=4.1475
Ri650	vdd!#146	vdd!#144	1.333e-03	$mt1
+ $X=11.3395 $Y=4.1475
Ri651	vdd!#147	vdd!	9.010e-02	$mt1	$X=9.54 $Y=2.87
Ri652	vdd!#149	vdd!#147	    0.4867	$mt1
+ $X=9.48 $Y=2.405
Ri654	vdd!#151	vdd!	8.328e-02	$mt1	$X=10.76 $Y=3.21
Ri655	vdd!#153	vdd!#151	    0.4867	$mt1
+ $X=10.82 $Y=3.675
Ri657	vdd!#68	vdd!	   15.0867	$mt1	$X=8.92 $Y=2.87
Ri660	vdd!#159	vdd!	    0.5767	$mt1	$X=6.44 $Y=2.7025
Ri664	vdd!#165	vdd!	    0.6333	$mt1	$X=5.5 $Y=2.495
Ri666	vdd!#10	vdd!	    0.5120	$mt1	$X=6.1 $Y=3.5225
Ri667	vdd!#167	vdd!#10	3.333e-02	$mt1
+ $X=6.0995 $Y=4.1475
Ri668	vdd!#169	vdd!#167	1.333e-03	$mt1
+ $X=6.0995 $Y=4.1475
Ri669	vdd!#170	vdd!	    0.4565	$mt1	$X=4.98 $Y=2.575
Ri670	vdd!#170	vdd!#7	6.000e-02	$mt1	$X=4.9795 $Y=2.08
Ri671	vdd!#170	vdd!#7	3.333e-02	$mt1	$X=4.98 $Y=1.9325
Ri672	vdd!#172	vdd!#170	1.333e-03	$mt1
+ $X=4.98 $Y=1.9325
Ri675	vdd!#177	vdd!	    0.8418	$mt1	$X=4.92 $Y=3.7325
Ri677	vdd!#68	vdd!	   15.0867	$mt1	$X=4.48 $Y=3.21
Ri680	vdd!#183	vdd!	    0.7067	$mt1	$X=2.26 $Y=3.58
Ri682	vdd!#185	vdd!	9.217e-02	$mt1	$X=0.32 $Y=2.87
Ri683	vdd!#187	vdd!#185	    0.4867	$mt1
+ $X=0.26 $Y=2.405
Ri685	vdd!#66	vdd!#65	   15.0000	$mt1
+ $X=26.54 $Y=4.13
Ri686	vdd!#69	vdd!#68	   15.0000	$mt1
+ $X=26.48 $Y=3.34
Ri687	vdd!#72	vdd!#71	    7.5000	$mt1
+ $X=21.82 $Y=4.15
Ri692	vdd!#86	vdd!#68	   15.0000	$mt1
+ $X=21.88 $Y=2.74
Ri693	vdd!#88	vdd!#87	   15.0000	$mt1
+ $X=21.82 $Y=1.95
Ri695	vdd!#94	vdd!#68	   15.0000	$mt1
+ $X=21.24 $Y=3.34
Ri696	vdd!#96	vdd!#95	   15.0000	$mt1	$X=21.3 $Y=4.13
Ri704	vdd!#121	vdd!#120	    7.5000	$mt1
+ $X=16.58 $Y=4.15
Ri706	vdd!#125	vdd!#68	   15.0000	$mt1	$X=16 $Y=3.34
Ri707	vdd!#127	vdd!#126	   15.0000	$mt1
+ $X=16.06 $Y=4.13
Ri713	vdd!#146	vdd!#145	    7.5000	$mt1
+ $X=11.34 $Y=4.15
Ri714	vdd!#147	vdd!#68	   15.0000	$mt1	$X=9.54 $Y=2.74
Ri715	vdd!#149	vdd!#148	   15.0000	$mt1	$X=9.48 $Y=1.95
Ri716	vdd!#151	vdd!#68	   15.0000	$mt1
+ $X=10.76 $Y=3.34
Ri717	vdd!#153	vdd!#152	   15.0000	$mt1
+ $X=10.82 $Y=4.13
Ri719	vdd!#159	vdd!#158	    5.0000	$mt1
+ $X=6.44 $Y=2.075
Ri721	vdd!#165	vdd!#164	   15.0000	$mt1	$X=5.5 $Y=1.99
Ri722	vdd!#169	vdd!#168	    7.5000	$mt1	$X=6.1 $Y=4.15
Ri723	vdd!#172	vdd!#171	    7.5000	$mt1	$X=4.98 $Y=1.93
Ri725	vdd!#177	vdd!#176	   15.0000	$mt1
+ $X=4.92 $Y=4.385
Ri727	vdd!#183	vdd!#182	   15.0000	$mt1	$X=2.26 $Y=4.2
Ri728	vdd!#185	vdd!#68	   15.0000	$mt1	$X=0.32 $Y=2.74
Ri729	vdd!#187	vdd!#186	   15.0000	$mt1	$X=0.26 $Y=1.95
Ri3	CLK#1	CLK#2	1.882e-02	$mt1	$X=0.81 $Y=1.435
Ri4	CLK#3	CLK#2	6.452e-03	$mt1	$X=0.81 $Y=1.355
Ri5	CLK#4	CLK#1	6.452e-03	$mt1	$X=0.81 $Y=1.435
Ri6	CLK#4	CLK#3	1.882e-02	$mt1	$X=0.835 $Y=1.395
Ri7	CLK#5	CLK#6	6.452e-03	$mt1	$X=0.86 $Y=1.475
Ri8	CLK#5	CLK#4	9.412e-03	$mt1	$X=0.835 $Y=1.455
Ri52	CLK#10	CLK#12	   10.0000	$mt1	$X=3.595 $Y=1.065
Ri120	CLK#17	CLK#16	   11.4000	$mt1	$X=7.485 $Y=5.015
Ri166	CLK#29	CLK#24	1.882e-02	$mt1	$X=10.03 $Y=1.435
Ri167	CLK#30	CLK#24	6.452e-03	$mt1	$X=10.03 $Y=1.355
Ri168	CLK#31	CLK#29	6.452e-03	$mt1	$X=10.03 $Y=1.435
Ri169	CLK#31	CLK#30	1.882e-02	$mt1	$X=10.055 $Y=1.395
Ri170	CLK#32	CLK#25	6.452e-03	$mt1	$X=10.08 $Y=1.475
Ri171	CLK#32	CLK#31	9.412e-03	$mt1	$X=10.055 $Y=1.455
Ri188	CLK#33	CLK#28	9.412e-03	$mt1	$X=10.27 $Y=4.645
Ri189	CLK#34	CLK#28	6.452e-03	$mt1	$X=10.22 $Y=4.605
Ri190	CLK#35	CLK#33	6.452e-03	$mt1	$X=10.27 $Y=4.645
Ri191	CLK#35	CLK#34	9.412e-03	$mt1	$X=10.245 $Y=4.625
Ri192	CLK#36	CLK#37	6.452e-03	$mt1	$X=10.27 $Y=4.725
Ri193	CLK#36	CLK#35	1.882e-02	$mt1	$X=10.245 $Y=4.685
Ri244	CLK#40	CLK#39	   11.4000	$mt1	$X=12.725 $Y=5.015
Ri253	CLK#42	CLK#41	   11.4000	$mt1	$X=12.815 $Y=1.065
Ri322	CLK#55	CLK#54	9.412e-03	$mt1	$X=15.51 $Y=4.645
Ri323	CLK#56	CLK#54	6.452e-03	$mt1	$X=15.46 $Y=4.605
Ri324	CLK#57	CLK#55	6.452e-03	$mt1	$X=15.51 $Y=4.645
Ri325	CLK#57	CLK#56	9.412e-03	$mt1	$X=15.485 $Y=4.625
Ri326	CLK#58	CLK#59	6.452e-03	$mt1	$X=15.51 $Y=4.725
Ri327	CLK#58	CLK#57	1.882e-02	$mt1	$X=15.485 $Y=4.685
Ri351	CLK#67	CLK#66	   11.4000	$mt1	$X=17.965 $Y=5.015
Ri369	CLK#65	CLK#72	    2.8925	$mt1	$X=17.518 $Y=1.2
Ri370	CLK#65	CLK	4.750e-02	$mt1	$X=16.892 $Y=1.2
Ri436	CLK#107	CLK#106	9.412e-03	$mt1
+ $X=20.75 $Y=4.645
Ri437	CLK#108	CLK#106	6.452e-03	$mt1
+ $X=20.7 $Y=4.605
Ri438	CLK#109	CLK#107	6.452e-03	$mt1
+ $X=20.75 $Y=4.645
Ri439	CLK#109	CLK#108	9.412e-03	$mt1
+ $X=20.725 $Y=4.625
Ri440	CLK#110	CLK#111	6.452e-03	$mt1
+ $X=20.75 $Y=4.725
Ri441	CLK#110	CLK#109	1.882e-02	$mt1
+ $X=20.725 $Y=4.685
Ri458	CLK#116	CLK#117	1.882e-02	$mt1
+ $X=22.37 $Y=1.435
Ri459	CLK#118	CLK#117	6.452e-03	$mt1
+ $X=22.37 $Y=1.355
Ri460	CLK#119	CLK#116	6.452e-03	$mt1
+ $X=22.37 $Y=1.435
Ri461	CLK#119	CLK#118	1.882e-02	$mt1
+ $X=22.395 $Y=1.395
Ri462	CLK#120	CLK#114	6.452e-03	$mt1
+ $X=22.42 $Y=1.475
Ri463	CLK#120	CLK#119	9.412e-03	$mt1
+ $X=22.395 $Y=1.455
Ri476	CLK#124	CLK#126	   10.0000	$mt1
+ $X=23.205 $Y=5.015
Ri534	CLK#131	CLK#130	   11.4000	$mt1
+ $X=25.155 $Y=1.065
Ri557	CLK#140	CLK#141	9.412e-03	$mt1
+ $X=25.99 $Y=4.645
Ri558	CLK#142	CLK#141	6.452e-03	$mt1
+ $X=25.94 $Y=4.605
Ri559	CLK#143	CLK#140	6.452e-03	$mt1
+ $X=25.99 $Y=4.645
Ri560	CLK#143	CLK#142	9.412e-03	$mt1
+ $X=25.965 $Y=4.625
Ri561	CLK#144	CLK#145	6.452e-03	$mt1
+ $X=25.99 $Y=4.725
Ri562	CLK#144	CLK#143	1.882e-02	$mt1
+ $X=25.965 $Y=4.685
Ri73	Set#1	Set#2	    1.4749	$mt1	$X=5.0755 $Y=1.245
Ri85	Set#11	Set#8	    0.6650	$mt1	$X=5.6975 $Y=4.88
Ri86	Set#8	Set#7	    0.6608	$mt1	$X=5.315 $Y=4.06
Ri207	Set#17	Set#19	    0.1472	$mt1	$X=11.09 $Y=4.65
Ri303	Set#32	Set#31	    5.1565	$mt1	$X=14.88 $Y=1.215
Ri304	Set#33	Set#32	    0.1886	$mt1	$X=14.5755 $Y=1.2
Ri305	Set#33	Set#24	    0.1642	$mt1	$X=14.3425 $Y=1.2
Ri307	Set#33	Set	    0.9105	$mt1	$X=14.465 $Y=1.91
Ri332	Set#42	Set#44	    0.1472	$mt1	$X=16.33 $Y=4.65
Ri445	Set#50	Set#52	    0.1472	$mt1	$X=21.57 $Y=4.65
Ri580	Set#57	Set#60	    0.9286	$mt1	$X=26.8025 $Y=1.955
Ri10	avC6#2	avC6#3	8.163e-03	$mt1	$X=0.86 $Y=0.99
Ri11	avC6#5	avC6#4	8.163e-03	$mt1	$X=0.81 $Y=1.045
Ri12	avC6#5	avC6#2	1.294e-02	$mt1	$X=0.835 $Y=1.0175
Ri31	avC6#7	avC6#10	   10.0000	$mt1	$X=2.685 $Y=1.48
Ri148	avC6#16	avC6#15	   11.4000	$mt1	$X=8.395 $Y=4.6
Ri173	avC6#25	avC6#20	8.163e-03	$mt1
+ $X=10.08 $Y=0.99
Ri174	avC6#27	avC6#26	8.163e-03	$mt1
+ $X=10.03 $Y=1.045
Ri175	avC6#27	avC6#25	1.294e-02	$mt1
+ $X=10.055 $Y=1.0175
Ri183	avC6#28	avC6#29	1.118e-02	$mt1
+ $X=10.27 $Y=5.0825
Ri184	avC6#30	avC6#29	8.163e-03	$mt1
+ $X=10.27 $Y=5.035
Ri185	avC6#31	avC6#23	8.163e-03	$mt1
+ $X=10.22 $Y=5.09
Ri186	avC6#31	avC6#28	8.163e-03	$mt1
+ $X=10.27 $Y=5.0825
Ri187	avC6#31	avC6#30	1.118e-02	$mt1
+ $X=10.245 $Y=5.0585
Ri218	avC6#42	avC6#45	   11.4000	$mt1
+ $X=11.905 $Y=1.48
Ri282	avC6#53	avC6#49	    1.4000	$mt1
+ $X=13.635 $Y=4.6
Ri317	avC6#57	avC6#58	1.118e-02	$mt1
+ $X=15.51 $Y=5.0825
Ri318	avC6#59	avC6#58	8.163e-03	$mt1
+ $X=15.51 $Y=5.035
Ri319	avC6#60	avC6#56	8.163e-03	$mt1
+ $X=15.46 $Y=5.09
Ri320	avC6#60	avC6#57	8.163e-03	$mt1
+ $X=15.51 $Y=5.0825
Ri321	avC6#60	avC6#59	1.118e-02	$mt1
+ $X=15.485 $Y=5.0585
Ri368	avC6#66	avC6#65	   11.4000	$mt1
+ $X=18.875 $Y=4.6
Ri387	avC6#72	avC6#71	    1.4772	$mt1	$X=20.65 $Y=1.2
Ri388	avC6#73	avC6#72	    0.2203	$mt1
+ $X=20.37 $Y=0.99
Ri394	avC6#80	avC6#72	    0.2236	$mt1
+ $X=20.37 $Y=1.4125
Ri399	avC6#80	avC6#86	    0.1533	$mt1
+ $X=17.01 $Y=2.07
Ri400	avC6#86	avC6#80	   15.1533	$mt1
+ $X=17.01 $Y=2.07
Ri410	avC6#80	avC6#101	    0.1533	$mt1
+ $X=20.37 $Y=2.07
Ri411	avC6#101	avC6#80	   15.1533	$mt1
+ $X=20.37 $Y=2.07
Ri413	avC6#80	avC6#104	    0.1533	$mt1
+ $X=19.53 $Y=2.07
Ri414	avC6#104	avC6#80	   15.1533	$mt1
+ $X=19.53 $Y=2.07
Ri416	avC6#80	avC6#107	    0.1533	$mt1
+ $X=18.69 $Y=2.07
Ri417	avC6#107	avC6#80	   15.1533	$mt1
+ $X=18.69 $Y=2.07
Ri419	avC6#80	avC6#110	    0.1533	$mt1
+ $X=17.85 $Y=2.07
Ri420	avC6#110	avC6#80	   15.1533	$mt1
+ $X=17.85 $Y=2.07
Ri431	avC6#113	avC6#114	1.118e-02	$mt1
+ $X=20.75 $Y=5.0825
Ri432	avC6#115	avC6#114	8.163e-03	$mt1
+ $X=20.75 $Y=5.035
Ri433	avC6#116	avC6#112	8.163e-03	$mt1	$X=20.7 $Y=5.09
Ri434	avC6#116	avC6#113	8.163e-03	$mt1
+ $X=20.75 $Y=5.0825
Ri435	avC6#116	avC6#115	1.118e-02	$mt1
+ $X=20.725 $Y=5.0585
Ri465	avC6#127	avC6#124	8.163e-03	$mt1
+ $X=22.42 $Y=0.99
Ri466	avC6#129	avC6#128	8.163e-03	$mt1
+ $X=22.37 $Y=1.045
Ri467	avC6#129	avC6#127	1.294e-02	$mt1
+ $X=22.395 $Y=1.0175
Ri503	avC6#133	avC6#132	   11.4000	$mt1
+ $X=24.115 $Y=4.6
Ri504	avC6#131	avC6#137	   11.4000	$mt1
+ $X=24.245 $Y=1.48
Ri552	avC6#142	avC6#143	1.118e-02	$mt1
+ $X=25.99 $Y=5.0825
Ri553	avC6#144	avC6#143	8.163e-03	$mt1
+ $X=25.99 $Y=5.035
Ri554	avC6#146	avC6#145	8.163e-03	$mt1
+ $X=25.94 $Y=5.09
Ri555	avC6#146	avC6#142	8.163e-03	$mt1
+ $X=25.99 $Y=5.0825
Ri556	avC6#146	avC6#144	1.118e-02	$mt1
+ $X=25.965 $Y=5.0585
Ri62	avC9	avC9#3	    2.3279	$mt1	$X=4.0025 $Y=1.32
Ri115	avC9#9	avC9#10	    2.3279	$mt1	$X=7.195 $Y=4.2125
Ri235	avC9#21	avC9#17	    2.3279	$mt1
+ $X=12.435 $Y=4.2125
Ri270	avC9#25	avC9#27	    2.3279	$mt1
+ $X=13.2225 $Y=1.32
Ri299	avC9#34	avC9#33	   15.0000	$mt1
+ $X=15.14 $Y=1.73
Ri300	avC9#34	avC9#35	    1.4000	$mt1
+ $X=15.14 $Y=1.73
Ri301	avC9#37	avC9#36	   15.0000	$mt1
+ $X=15.14 $Y=0.775
Ri302	avC9#37	avC9#38	    1.4000	$mt1
+ $X=15.14 $Y=0.775
Ri349	avC9#48	avC9#44	    2.3279	$mt1
+ $X=17.675 $Y=4.2125
Ri474	avC9#52	avC9#53	    2.3279	$mt1
+ $X=22.915 $Y=4.2125
Ri544	avC9#60	avC9#62	    2.3279	$mt1
+ $X=25.5625 $Y=1.32
Ri442	I14/avC10#3	I14/avC10	    1.4256	$mt1
+ $X=21.82 $Y=5.535
Ri444	I14/avC10#3	I14/avC10#2	   15.0000	$mt1
+ $X=21.82 $Y=5.49
Ri468	I14/avC10#8	I14/avC10#7	    0.1093	$mt1
+ $X=22.66 $Y=4.15
Ri470	I14/avC10#8	I14/avC10#11	9.333e-02	$mt1
+ $X=22.65 $Y=4.15
Ri471	I14/avC10#8	I14/avC10#9	    7.5000	$mt1
+ $X=22.66 $Y=4.15
Ri493	I14/avC10#13	I14/avC10#15	    0.4367	$mt1
+ $X=23.6 $Y=5.133
Ri494	I14/avC10#15	I14/avC10#16	    0.6200	$mt1
+ $X=23.6 $Y=4.6135
Ri495	I14/avC10#16	I14/avC10#17	2.615e-02	$mt1	$X=23.6 $Y=3.95
Ri497	I14/avC10#13	I14/avC10#12	   15.0000	$mt1
+ $X=23.6 $Y=5.535
Ri498	I14/avC10#16	I14/avC10#18	    5.0000	$mt1	$X=23.6 $Y=3.95
Ri500	I14/I0/avC9	I14/I0/avC9#7	2.667e-03	$mt1
+ $X=24.0325 $Y=3.945
Ri528	I14/I0/avC9#10	I14/I0/avC9#11	2.667e-03	$mt1
+ $X=24.9475 $Y=3.945
Ri530	I14/I0/avC9#10	I14/I0/avC9#12	    5.0000	$mt1
+ $X=24.96 $Y=3.95
Ri546	I14/I0/avC7#9	I14/I0/avC7#7	    0.5283	$mt1
+ $X=25.76 $Y=4.31
Ri547	I14/I0/avC7#9	I14/I0/avC7	    5.4073	$mt1
+ $X=25.36 $Y=4.88
Ri548	I14/I0/avC7#11	I14/I0/avC7#9	    0.4750	$mt1
+ $X=25.62 $Y=5.1325
Ri550	I14/I0/avC7#7	I14/I0/avC7#6	   15.0000	$mt1	$X=25.9 $Y=4.13
Ri551	I14/I0/avC7#11	I14/I0/avC7#10	   15.0000	$mt1
+ $X=25.9 $Y=5.445
Ri329	I15/avC10#3	I15/avC10	    1.4256	$mt1
+ $X=16.58 $Y=5.535
Ri331	I15/avC10#3	I15/avC10#2	   15.0000	$mt1
+ $X=16.58 $Y=5.49
Ri343	I15/avC10#8	I15/avC10#7	    0.1093	$mt1
+ $X=17.42 $Y=4.15
Ri345	I15/avC10#8	I15/avC10#11	9.333e-02	$mt1
+ $X=17.41 $Y=4.15
Ri346	I15/avC10#8	I15/avC10#9	    7.5000	$mt1
+ $X=17.42 $Y=4.15
Ri358	I15/avC10#13	I15/avC10#15	    0.4367	$mt1
+ $X=18.36 $Y=5.133
Ri359	I15/avC10#15	I15/avC10#16	    0.6200	$mt1
+ $X=18.36 $Y=4.6135
Ri360	I15/avC10#16	I15/avC10#17	2.615e-02	$mt1
+ $X=18.36 $Y=3.95
Ri362	I15/avC10#13	I15/avC10#12	   15.0000	$mt1
+ $X=18.36 $Y=5.535
Ri363	I15/avC10#16	I15/avC10#18	    5.0000	$mt1
+ $X=18.36 $Y=3.95
Ri365	I15/I0/avC9	I15/I0/avC9#7	2.667e-03	$mt1
+ $X=18.7925 $Y=3.945
Ri377	I15/I0/avC9#10	I15/I0/avC9#11	2.667e-03	$mt1
+ $X=19.7075 $Y=3.945
Ri379	I15/I0/avC9#10	I15/I0/avC9#12	    5.0000	$mt1
+ $X=19.72 $Y=3.95
Ri381	I15/I0/avC7#9	I15/I0/avC7#7	    0.5283	$mt1
+ $X=20.52 $Y=4.31
Ri382	I15/I0/avC7#9	I15/I0/avC7	    5.4073	$mt1
+ $X=20.12 $Y=4.88
Ri383	I15/I0/avC7#11	I15/I0/avC7#9	    0.4750	$mt1
+ $X=20.38 $Y=5.1325
Ri385	I15/I0/avC7#7	I15/I0/avC7#6	   15.0000	$mt1
+ $X=20.66 $Y=4.13
Ri386	I15/I0/avC7#11	I15/I0/avC7#10	   15.0000	$mt1
+ $X=20.66 $Y=5.445
Ri204	I16/avC10#3	I16/avC10	    1.4256	$mt1
+ $X=11.34 $Y=5.535
Ri206	I16/avC10#3	I16/avC10#2	   15.0000	$mt1
+ $X=11.34 $Y=5.49
Ri229	I16/avC10#8	I16/avC10#7	    0.1093	$mt1
+ $X=12.18 $Y=4.15
Ri231	I16/avC10#8	I16/avC10#11	9.333e-02	$mt1
+ $X=12.17 $Y=4.15
Ri232	I16/avC10#8	I16/avC10#9	    7.5000	$mt1
+ $X=12.18 $Y=4.15
Ri257	I16/avC10#13	I16/avC10#15	    0.4367	$mt1
+ $X=13.12 $Y=5.133
Ri258	I16/avC10#15	I16/avC10#16	    0.6200	$mt1
+ $X=13.12 $Y=4.6135
Ri259	I16/avC10#16	I16/avC10#17	2.615e-02	$mt1
+ $X=13.12 $Y=3.95
Ri261	I16/avC10#13	I16/avC10#12	   15.0000	$mt1
+ $X=13.12 $Y=5.535
Ri262	I16/avC10#16	I16/avC10#18	    5.0000	$mt1
+ $X=13.12 $Y=3.95
Ri272	I16/I0/avC9	I16/I0/avC9#7	2.667e-03	$mt1
+ $X=13.5525 $Y=3.945
Ri296	I16/I0/avC9#10	I16/I0/avC9#11	2.667e-03	$mt1
+ $X=14.4675 $Y=3.945
Ri298	I16/I0/avC9#10	I16/I0/avC9#12	    5.0000	$mt1
+ $X=14.48 $Y=3.95
Ri311	I16/I0/avC7#9	I16/I0/avC7#7	    0.5283	$mt1
+ $X=15.28 $Y=4.31
Ri312	I16/I0/avC7#9	I16/I0/avC7	    5.4073	$mt1
+ $X=14.88 $Y=4.88
Ri313	I16/I0/avC7#11	I16/I0/avC7#9	    0.4750	$mt1
+ $X=15.14 $Y=5.1325
Ri315	I16/I0/avC7#7	I16/I0/avC7#6	   15.0000	$mt1
+ $X=15.42 $Y=4.13
Ri316	I16/I0/avC7#11	I16/I0/avC7#10	   15.0000	$mt1
+ $X=15.42 $Y=5.445
Ri81	I18/avC10#3	I18/avC10	    1.4256	$mt1	$X=6.1 $Y=5.535
Ri83	I18/avC10#3	I18/avC10#2	   15.0000	$mt1	$X=6.1 $Y=5.49
Ri109	I18/avC10#8	I18/avC10#7	    0.1093	$mt1	$X=6.94 $Y=4.15
Ri111	I18/avC10#8	I18/avC10#11	9.333e-02	$mt1	$X=6.93 $Y=4.15
Ri112	I18/avC10#8	I18/avC10#9	    7.5000	$mt1	$X=6.94 $Y=4.15
Ri134	I18/avC10#13	I18/avC10#15	    0.4367	$mt1
+ $X=7.88 $Y=5.133
Ri135	I18/avC10#15	I18/avC10#16	    0.6200	$mt1
+ $X=7.88 $Y=4.6135
Ri136	I18/avC10#16	I18/avC10#17	2.615e-02	$mt1	$X=7.88 $Y=3.95
Ri138	I18/avC10#13	I18/avC10#12	   15.0000	$mt1
+ $X=7.88 $Y=5.535
Ri139	I18/avC10#16	I18/avC10#18	    5.0000	$mt1	$X=7.88 $Y=3.95
Ri145	I18/I0/avC9	I18/I0/avC9#7	2.667e-03	$mt1
+ $X=8.3125 $Y=3.945
Ri159	I18/I0/avC9#10	I18/I0/avC9#11	2.667e-03	$mt1
+ $X=9.2275 $Y=3.945
Ri161	I18/I0/avC9#10	I18/I0/avC9#12	    5.0000	$mt1	$X=9.24 $Y=3.95
Ri177	I18/I0/avC7#9	I18/I0/avC7#7	    0.5283	$mt1
+ $X=10.04 $Y=4.31
Ri178	I18/I0/avC7#9	I18/I0/avC7	    5.4073	$mt1	$X=9.64 $Y=4.88
Ri179	I18/I0/avC7#11	I18/I0/avC7#9	    0.4750	$mt1
+ $X=9.9 $Y=5.1325
Ri181	I18/I0/avC7#7	I18/I0/avC7#6	   15.0000	$mt1
+ $X=10.18 $Y=4.13
Ri182	I18/I0/avC7#11	I18/I0/avC7#10	   15.0000	$mt1
+ $X=10.18 $Y=5.445
Ri515	I13/avC10	I13/avC10#2	2.615e-02	$mt1
+ $X=24.76 $Y=2.117
Ri517	I13/avC10	I13/avC10#5	    0.6200	$mt1
+ $X=24.76 $Y=1.4855
Ri518	I13/avC10#7	I13/avC10#5	    0.4367	$mt1
+ $X=24.76 $Y=0.948
Ri520	I13/avC10	I13/avC10#3	    5.0000	$mt1
+ $X=24.76 $Y=2.13
Ri521	I13/avC10#7	I13/avC10#6	   15.0000	$mt1
+ $X=24.76 $Y=0.545
Ri537	I13/avC10#10	I13/avC10#9	    0.1093	$mt1	$X=25.7 $Y=1.93
Ri539	I13/avC10#10	I13/avC10#13	    1.4933	$mt1
+ $X=25.71 $Y=2.0225
Ri540	I13/avC10#10	I13/avC10#11	    7.5000	$mt1	$X=25.7 $Y=1.93
Ri575	I13/avC10#17	I13/avC10#16	   15.0000	$mt1
+ $X=26.54 $Y=0.59
Ri576	I13/avC10#17	I13/avC10#18	    1.4256	$mt1
+ $X=26.54 $Y=0.59
Ri483	I13/I0/avC9	I13/I0/avC9#4	2.667e-03	$mt1
+ $X=23.4125 $Y=2.13
Ri484	I13/I0/avC9	I13/I0/avC9#2	    5.0000	$mt1	$X=23.4 $Y=2.13
Ri506	I13/I0/avC9#5	I13/I0/avC9#8	2.667e-03	$mt1
+ $X=24.3275 $Y=2.13
Ri485	I13/I0/avC7#2	I13/I0/avC7	    5.4073	$mt1
+ $X=23.0005 $Y=1.2
Ri486	I13/I0/avC7#2	I13/I0/avC7#3	    0.5283	$mt1
+ $X=22.74 $Y=1.485
Ri488	I13/I0/avC7#7	I13/I0/avC7#2	    0.4750	$mt1
+ $X=22.74 $Y=0.9475
Ri490	I13/I0/avC7#3	I13/I0/avC7#4	   15.0000	$mt1
+ $X=22.46 $Y=1.95
Ri491	I13/I0/avC7#7	I13/I0/avC7#6	   15.0000	$mt1
+ $X=22.46 $Y=0.635
Ri237	I6/avC10	I6/avC10#2	2.615e-02	$mt1
+ $X=12.42 $Y=2.117
Ri239	I6/avC10	I6/avC10#5	    0.6200	$mt1
+ $X=12.42 $Y=1.4855
Ri240	I6/avC10#7	I6/avC10#5	    0.4367	$mt1
+ $X=12.42 $Y=0.948
Ri242	I6/avC10	I6/avC10#3	    5.0000	$mt1
+ $X=12.42 $Y=2.13
Ri243	I6/avC10#7	I6/avC10#6	   15.0000	$mt1
+ $X=12.42 $Y=0.545
Ri263	I6/avC10#10	I6/avC10#9	    0.1093	$mt1
+ $X=13.36 $Y=1.93
Ri265	I6/avC10#10	I6/avC10#13	    1.4933	$mt1
+ $X=13.37 $Y=2.0225
Ri266	I6/avC10#10	I6/avC10#11	    7.5000	$mt1
+ $X=13.36 $Y=1.93
Ri288	I6/avC10#17	I6/avC10#16	   15.0000	$mt1	$X=14.2 $Y=0.59
Ri289	I6/avC10#17	I6/avC10#18	    1.4256	$mt1	$X=14.2 $Y=0.59
Ri195	I6/I0/avC9	I6/I0/avC9#4	2.667e-03	$mt1
+ $X=11.0725 $Y=2.13
Ri196	I6/I0/avC9	I6/I0/avC9#2	    5.0000	$mt1
+ $X=11.06 $Y=2.13
Ri220	I6/I0/avC9#6	I6/I0/avC9#5	2.667e-03	$mt1
+ $X=11.9875 $Y=2.13
Ri197	I6/I0/avC7#2	I6/I0/avC7	    5.4073	$mt1
+ $X=10.6605 $Y=1.2
Ri198	I6/I0/avC7#2	I6/I0/avC7#3	    0.5283	$mt1
+ $X=10.4 $Y=1.485
Ri200	I6/I0/avC7#7	I6/I0/avC7#2	    0.4750	$mt1
+ $X=10.4 $Y=0.9475
Ri202	I6/I0/avC7#3	I6/I0/avC7#4	   15.0000	$mt1
+ $X=10.12 $Y=1.95
Ri203	I6/I0/avC7#7	I6/I0/avC7#6	   15.0000	$mt1
+ $X=10.12 $Y=0.635
Ri42	I17/avC10	I17/avC10#2	2.615e-02	$mt1	$X=3.2 $Y=2.117
Ri44	I17/avC10	I17/avC10#5	    0.6200	$mt1
+ $X=3.2 $Y=1.4855
Ri45	I17/avC10#7	I17/avC10#5	    0.4367	$mt1	$X=3.2 $Y=0.948
Ri47	I17/avC10	I17/avC10#3	    5.0000	$mt1	$X=3.2 $Y=2.13
Ri48	I17/avC10#7	I17/avC10#6	   15.0000	$mt1	$X=3.2 $Y=0.545
Ri55	I17/avC10#10	I17/avC10#9	    0.1093	$mt1	$X=4.14 $Y=1.93
Ri57	I17/avC10#10	I17/avC10#13	    1.4933	$mt1
+ $X=4.15 $Y=2.0225
Ri58	I17/avC10#10	I17/avC10#11	    7.5000	$mt1	$X=4.14 $Y=1.93
Ri71	I17/avC10#17	I17/avC10#16	   15.0000	$mt1	$X=4.98 $Y=0.59
Ri72	I17/avC10#17	I17/avC10#18	    1.4256	$mt1	$X=4.98 $Y=0.59
Ri22	I17/I0/avC9	I17/I0/avC9#4	2.667e-03	$mt1
+ $X=1.8525 $Y=2.13
Ri23	I17/I0/avC9	I17/I0/avC9#2	    5.0000	$mt1	$X=1.84 $Y=2.13
Ri33	I17/I0/avC9#5	I17/I0/avC9#8	2.667e-03	$mt1
+ $X=2.7675 $Y=2.13
Ri24	I17/I0/avC7#6	I17/I0/avC7	    5.4073	$mt1
+ $X=1.4405 $Y=1.2
Ri25	I17/I0/avC7#6	I17/I0/avC7#7	    0.5283	$mt1
+ $X=1.18 $Y=1.485
Ri27	I17/I0/avC7#11	I17/I0/avC7#6	    0.4750	$mt1
+ $X=1.18 $Y=0.9475
Ri29	I17/I0/avC7#7	I17/I0/avC7#8	   15.0000	$mt1	$X=0.9 $Y=1.95
Ri30	I17/I0/avC7#11	I17/I0/avC7#10	   15.0000	$mt1	$X=0.9 $Y=0.635
Rj1	7_B0#1	7_B0#2	   50.0688	$poly	$X=0.47 $Y=1.5055
Rj2	7_B0#2	7_B0#3	   11.0694	$poly	$X=0.47 $Y=1.2
Rj3	7_B0#2	7_B0#4	   43.5688	$poly	$X=0.47 $Y=0.9275
Rj28	7_B0#23	7_B0#24	   98.4119	$poly
+ $X=6.23 $Y=1.337
Rj29	7_B0#24	7_B0#18	   16.3706	$poly
+ $X=5.6475 $Y=1.455
Rj30	7_B0#24	7_B0#25	   34.0931	$poly
+ $X=5.71 $Y=1.7125
Rj37	avC10#11	avC10#12	  122.4997	$poly
+ $X=7.2655 $Y=1.24
Rj38	avC10#12	avC10#10	    2.9576	$poly
+ $X=6.65 $Y=1.235
Rj39	avC10#12	avC10#13	   32.0044	$poly
+ $X=6.65 $Y=1.0175
Rj40	avC10#12	avC10#14	   37.5044	$poly	$X=6.65 $Y=1.48
Rj57	avC12#14	avC12#15	   50.0688	$poly
+ $X=9.69 $Y=1.5055
Rj58	avC12#15	avC12#16	   11.0694	$poly	$X=9.69 $Y=1.2
Rj59	avC12#15	avC12#17	   43.5688	$poly
+ $X=9.69 $Y=0.9275
Rj167	avC8#16	avC8#17	   50.0688	$poly
+ $X=22.03 $Y=1.5055
Rj168	avC8#17	avC8#14	   11.0694	$poly	$X=22.03 $Y=1.2
Rj169	avC8#17	avC8#18	   43.5688	$poly
+ $X=22.03 $Y=0.9275
Rj203	avC16#10	avC16#12	   11.0694	$poly
+ $X=26.455 $Y=4.88
Rj204	avC16#12	avC16#13	   50.0688	$poly
+ $X=26.33 $Y=4.575
Rj205	avC16#12	avC16#14	   43.5688	$poly
+ $X=26.33 $Y=5.1525
Rj64	avC13	avC13#2	   11.0694	$poly	$X=10.735 $Y=4.88
Rj65	avC13#2	avC13#3	   50.0688	$poly
+ $X=10.61 $Y=4.575
Rj66	avC13#2	avC13#4	   43.5688	$poly
+ $X=10.61 $Y=5.1525
Rj22	avC11	avC11#2	   11.0694	$poly	$X=4.835 $Y=4.88
Rj23	avC11#2	avC11#3	   36.5688	$poly
+ $X=4.71 $Y=4.6425
Rj24	avC11#2	avC11#4	   50.0688	$poly
+ $X=4.71 $Y=5.185
Rj105	avC14	avC14#2	   11.0694	$poly	$X=15.975 $Y=4.88
Rj106	avC14#2	avC14#3	   50.0688	$poly
+ $X=15.85 $Y=4.575
Rj107	avC14#2	avC14#4	   43.5688	$poly
+ $X=15.85 $Y=5.1525
Rj161	avC15	avC15#2	   11.0694	$poly	$X=21.215 $Y=4.88
Rj162	avC15#2	avC15#3	   50.0688	$poly
+ $X=21.09 $Y=4.575
Rj163	avC15#2	avC15#4	   43.5688	$poly
+ $X=21.09 $Y=5.1525
Rj10	avC7	avC7#2	   14.5694	$poly	$X=2.245 $Y=4.88
Rj11	avC7#2	avC7#3	   43.0688	$poly	$X=2.05 $Y=4.61
Rj12	avC7#2	avC7#4	   39.0688	$poly	$X=2.05 $Y=5.13
Rj44	I33/avC7#11	I33/avC7#12	   94.6387	$poly
+ $X=7.67 $Y=2.8475
Rj45	I33/avC7#12	I33/avC7	  117.4077	$poly
+ $X=6.54 $Y=2.875
Rj46	I33/avC7#12	I33/avC7#13	   26.4473	$poly
+ $X=7.07 $Y=2.6475
Rj52	I33/avC7#14	I33/avC7#15	   36.6026	$poly
+ $X=8.75 $Y=1.017
Rj50	I33/avC5#9	I33/avC5#8	   96.1308	$poly
+ $X=8.2205 $Y=2.27
Rj51	I33/avC5#9	I33/avC5#10	   90.0000	$poly
+ $X=8.53 $Y=1.3505
Rj4	CLK#6	CLK#7	   33.2297	$poly	$X=0.69 $Y=1.6425
Rj18	CLK#13	CLK#12	   11.2198	$poly	$X=3.4775 $Y=0.985
Rj42	CLK#19	CLK#16	   11.2198	$poly	$X=7.6025 $Y=5.095
Rj60	CLK#25	CLK#26	   33.2297	$poly	$X=9.91 $Y=1.6425
Rj63	CLK#27	CLK#28	   33.2297	$poly	$X=10.39 $Y=4.447
Rj82	CLK#47	CLK#41	   11.2198	$poly	$X=12.6975 $Y=0.985
Rj84	CLK#50	CLK#39	   11.2198	$poly	$X=12.8425 $Y=5.095
Rj104	CLK#53	CLK#54	   33.2297	$poly	$X=15.63 $Y=4.447
Rj115	CLK#69	CLK#66	   11.2198	$poly	$X=18.0825 $Y=5.095
Rj160	CLK#105	CLK#106	   33.2297	$poly
+ $X=20.87 $Y=4.447
Rj170	CLK#114	CLK#115	   33.2297	$poly
+ $X=22.25 $Y=1.6425
Rj180	CLK#127	CLK#126	   11.2198	$poly
+ $X=23.3225 $Y=5.095
Rj194	CLK#135	CLK#130	   11.2198	$poly
+ $X=25.0375 $Y=0.985
Rj199	CLK#146	CLK#141	   33.2297	$poly
+ $X=26.11 $Y=4.447
Rj25	Set#2	Set#4	   13.3194	$poly	$X=4.94 $Y=1.27
Rj26	Set#4	Set#5	   52.0688	$poly	$X=4.77 $Y=0.955
Rj27	Set#4	Set#6	   35.0688	$poly	$X=4.77 $Y=1.5
Rj31	Set#13	Set#14	   52.0688	$poly	$X=6.31 $Y=5.1255
Rj32	Set#14	Set#11	   13.3194	$poly	$X=6.25 $Y=4.81
Rj33	Set#14	Set#15	   35.0688	$poly	$X=6.31 $Y=4.58
Rj71	Set#21	Set#22	   52.0688	$poly	$X=11.55 $Y=5.1255
Rj72	Set#22	Set#19	   13.3194	$poly	$X=11.49 $Y=4.81
Rj73	Set#22	Set#23	   35.0688	$poly	$X=11.55 $Y=4.58
Rj92	Set#24	Set#25	   13.3194	$poly	$X=14.16 $Y=1.27
Rj93	Set#25	Set#26	   52.0688	$poly	$X=13.99 $Y=0.955
Rj94	Set#25	Set#27	   35.0688	$poly	$X=13.99 $Y=1.5
Rj108	Set#46	Set#47	   52.0688	$poly	$X=16.79 $Y=5.1255
Rj109	Set#47	Set#44	   13.3194	$poly	$X=16.73 $Y=4.81
Rj110	Set#47	Set#48	   35.0688	$poly	$X=16.79 $Y=4.58
Rj164	Set#54	Set#55	   52.0688	$poly	$X=22.03 $Y=5.1255
Rj165	Set#55	Set#52	   13.3194	$poly	$X=21.97 $Y=4.81
Rj166	Set#55	Set#56	   35.0688	$poly	$X=22.03 $Y=4.58
Rj200	Set#60	Set#62	   13.3194	$poly	$X=26.5 $Y=1.27
Rj201	Set#62	Set#63	   52.0688	$poly	$X=26.33 $Y=0.955
Rj202	Set#62	Set#64	   35.0688	$poly	$X=26.33 $Y=1.5
Rj5	avC6#3	avC6#6	   33.2297	$poly	$X=0.69 $Y=0.8225
Rj14	avC6	avC6#10	   22.6608	$poly	$X=2.8725 $Y=1.48
Rj47	avC6#15	avC6#17	   22.6608	$poly
+ $X=8.2075 $Y=4.6
Rj61	avC6#20	avC6#21	   33.2297	$poly
+ $X=9.91 $Y=0.8225
Rj62	avC6#22	avC6#23	   33.2297	$poly
+ $X=10.39 $Y=5.248
Rj78	avC6#46	avC6#45	   22.6608	$poly
+ $X=12.0925 $Y=1.48
Rj89	avC6#49	avC6#50	   32.6608	$poly
+ $X=13.4475 $Y=4.6
Rj103	avC6#55	avC6#56	   33.2297	$poly
+ $X=15.63 $Y=5.248
Rj117	avC6#65	avC6#67	   22.6608	$poly
+ $X=18.6875 $Y=4.6
Rj159	avC6#111	avC6#112	   33.2297	$poly
+ $X=20.87 $Y=5.248
Rj171	avC6#124	avC6#125	   33.2297	$poly
+ $X=22.25 $Y=0.8225
Rj182	avC6#132	avC6#134	   22.6608	$poly
+ $X=23.9275 $Y=4.6
Rj186	avC6#138	avC6#137	   22.6608	$poly
+ $X=24.4325 $Y=1.48
Rj198	avC6#147	avC6#145	   33.2297	$poly
+ $X=26.11 $Y=5.248
Rj19	avC9#6	avC9#7	   42.0688	$poly	$X=4.35 $Y=1.4655
Rj20	avC9#7	avC9	   13.3194	$poly	$X=4.29 $Y=1.2
Rj21	avC9#7	avC9#8	   45.0688	$poly	$X=4.35 $Y=0.92
Rj34	avC9#10	avC9#14	   13.3194	$poly	$X=6.9 $Y=4.88
Rj35	avC9#14	avC9#15	   42.0688	$poly
+ $X=6.73 $Y=4.615
Rj36	avC9#14	avC9#16	   45.0688	$poly	$X=6.73 $Y=5.16
Rj74	avC9#17	avC9#18	   13.3194	$poly
+ $X=12.14 $Y=4.88
Rj75	avC9#18	avC9#19	   42.0688	$poly
+ $X=11.97 $Y=4.615
Rj76	avC9#18	avC9#20	   45.0688	$poly
+ $X=11.97 $Y=5.16
Rj86	avC9#30	avC9#31	   42.0688	$poly
+ $X=13.57 $Y=1.4655
Rj87	avC9#31	avC9#25	   13.3194	$poly	$X=13.51 $Y=1.2
Rj88	avC9#31	avC9#32	   45.0688	$poly
+ $X=13.57 $Y=0.92
Rj111	avC9#44	avC9#45	   13.3194	$poly
+ $X=17.38 $Y=4.88
Rj112	avC9#45	avC9#46	   42.0688	$poly
+ $X=17.21 $Y=4.615
Rj113	avC9#45	avC9#47	   45.0688	$poly
+ $X=17.21 $Y=5.16
Rj172	avC9#53	avC9#57	   13.3194	$poly
+ $X=22.62 $Y=4.88
Rj173	avC9#57	avC9#58	   42.0688	$poly
+ $X=22.45 $Y=4.615
Rj174	avC9#57	avC9#59	   45.0688	$poly
+ $X=22.45 $Y=5.16
Rj195	avC9#64	avC9#65	   42.0688	$poly
+ $X=25.91 $Y=1.4655
Rj196	avC9#65	avC9#60	   13.3194	$poly	$X=25.85 $Y=1.2
Rj197	avC9#65	avC9#66	   45.0688	$poly
+ $X=25.91 $Y=0.92
*
*       CAPACITOR CARDS
*
*
C1	avC14#2	vdd!#68	1.7728e-17	$X=15.8475 $Y=4.8605
C2	avC6#15	vdd!#68	2.2839e-17	$X=8.3975 $Y=4.5985
C3	I16/avC10#15	vdd!#68	2.2076e-18	$X=13.12 $Y=4.871
C4	CLK#125	I14/avC10#11	1.70003e-18	$X=23.0785 $Y=4.3515
C5	avC12#3	I33/avC5#4	3.93626e-18	$X=7.437 $Y=1.287
C6	avC11#9	gnd!#107	9.51048e-18	$X=4.824 $Y=5.2555
C7	CLK#60	Set#41	1.0322e-17	$X=15.9545 $Y=4.6755
C8	avC8#18	avC6#124	6.73423e-18	$X=22.203 $Y=0.7905
C9	Set#36	avC6#64	9.85549e-18	$X=15.301 $Y=4.6635
C10	avC6#56	avC14#2	1.48124e-17	$X=15.618 $Y=4.997
C11	I13/avC10#13	avC9#62	4.7786e-17	$X=25.518 $Y=2.1285
C12	CLK#28	avC13#3	9.00998e-18	$X=10.3985 $Y=4.3915
C13	I16/avC10#11	Set#23	2.68897e-18	$X=11.7995 $Y=4.116
C14	I17/I0/avC9#4	vdd!#68	1.46402e-18	$X=1.978 $Y=2.135
C15	I15/avC10#6	avC14#8	2.75667e-18	$X=16.775 $Y=5.2515
C16	CLK#106	avC15#3	8.96022e-18	$X=20.8785 $Y=4.3915
C17	I17/avC10#2	CLK#10	1.38879e-18	$X=3.4995 $Y=1.3975
C18	avC6#141	I15/I0/avC9#7	4.20922e-18	$X=19.2635 $Y=3.8275
C19	avC6#141	CLK#134	1.21584e-16	$X=21.536 $Y=3.574
C20	avC9#13	avC12#19	2.05179e-18	$X=8.775 $Y=1.923
C21	I18/avC10#6	avC11#8	2.56233e-18	$X=6.231 $Y=5.2775
C22	avC6#70	I16/avC10#17	1.42272e-18	$X=13.551 $Y=3.971
C23	avC12#3	avC10#10	7.09337e-18	$X=6.787 $Y=0.998
C24	I15/I0/avC9#7	vdd!#68	4.60624e-18	$X=18.8685 $Y=3.935
C25	I14/avC10#6	avC6#133	1.5492e-18	$X=22.922 $Y=4.5635
C26	avC6#66	gnd!#5	7.95116e-18	$X=18.9225 $Y=4.7065
C27	avC6#42	gnd!#5	7.94046e-18	$X=11.8555 $Y=1.372
C28	avC6#40	gnd!#5	1.10584e-17	$X=10.4145 $Y=1.3455
C29	I33/avC7#15	gnd!#5	1.13231e-17	$X=8.6445 $Y=1.205
C30	CLK#62	I16/I0/avC9#7	5.85436e-18	$X=13.96 $Y=3.969
C31	avC6#11	vdd!#1	1.68102e-17	$X=3.8465 $Y=0.9595
C32	vdd!#6	I33/avC7#2	1.54151e-18	$X=5.4705 $Y=1.9565
C33	avC6#153	CLK#139	1.14892e-17	$X=25.815 $Y=4.702
C34	CLK#4	7_B0#3	5.14148e-18	$X=0.688 $Y=1.313
C35	CLK#105	avC15#3	4.1234e-17	$X=20.9705 $Y=4.107
C36	avC10#14	vdd!#68	1.33413e-17	$X=6.6595 $Y=2.093
C37	CLK#139	I14/I0/avC7#9	8.72236e-18	$X=25.626 $Y=4.8305
C38	avC9#29	I6/avC10#18	1.68666e-18	$X=14.0205 $Y=1.0025
C39	I14/avC10#5	Set#54	2.42947e-18	$X=22.056 $Y=5.463
C40	Set#18	avC6#34	2.60382e-17	$X=10.188 $Y=4.9815
C41	Set#51	CLK#68	1.49637e-17	$X=19.2025 $Y=4.6815
C42	avC9#58	vdd!#68	1.62933e-17	$X=22.441 $Y=4.1405
C43	I16/avC10#15	avC6#49	1.30448e-18	$X=13.396 $Y=4.7255
C44	I16/avC10#6	avC13#8	1.21125e-18	$X=11.533 $Y=4.905
C45	I18/avC10#7	vdd!#68	2.55076e-18	$X=6.944 $Y=4.3535
C46	Set#36	avC6#70	2.63461e-17	$X=14.738 $Y=4.076
C47	Set#58	avC16	5.82525e-18	$X=26.718 $Y=2.6795
C48	vdd!#37	avC8#5	1.94835e-18	$X=13.8275 $Y=1.116
C49	avC11#2	vdd!#68	1.71589e-17	$X=4.72 $Y=4.9105
C50	7_B0#21	Set#1	5.81372e-18	$X=5.763 $Y=1.386
C51	I16/avC10#17	I16/I0/avC9#7	5.11893e-17	$X=13.2795 $Y=3.9985
C52	avC6#122	avC8#13	3.39166e-18	$X=20.3885 $Y=1.3595
C53	I6/I0/avC7#2	vdd!#68	6.0667e-18	$X=10.404 $Y=1.2175
C54	vdd!#6	7_B0#20	2.84948e-18	$X=5.4815 $Y=1.6945
C55	CLK#59	avC6#58	2.18872e-17	$X=15.5095 $Y=4.885
C56	I33/avC5#4	avC12#11	2.2224e-17	$X=7.8065 $Y=1.34
C57	avC6#131	gnd!#5	8.83034e-18	$X=24.195 $Y=1.372
C58	avC6#27	CLK#31	2.18872e-17	$X=10.0295 $Y=1.178
C59	I6/avC10#18	gnd!#5	3.74272e-18	$X=14.1945 $Y=0.5345
C60	I13/I0/avC9#4	I13/I0/avC7#3	1.04716e-18	$X=22.857 $Y=1.873
C61	avC12#11	I33/avC5#10	1.34174e-17	$X=8.4295 $Y=0.8505
C62	avC6#125	gnd!#5	9.33826e-18	$X=22.249 $Y=0.583
C63	avC10#13	gnd!#5	1.24269e-17	$X=6.6495 $Y=0.748
C64	avC6#5	CLK#4	2.18872e-17	$X=0.809 $Y=1.178
C65	I16/avC10#11	avC9#19	1.17943e-17	$X=12.083 $Y=4.1275
C66	avC9#51	I15/I0/avC9#11	1.14639e-18	$X=19.13 $Y=3.435
C67	I33/avC7#15	vdd!#68	1.89601e-17	$X=8.654 $Y=1.208
C68	avC8#13	avC9#56	1.95968e-17	$X=20.5775 $Y=1.1675
C69	CLK#112	I15/I0/avC7#9	3.72838e-18	$X=20.2915 $Y=4.8235
C70	CLK#138	I14/I0/avC9#7	8.90645e-18	$X=24.662 $Y=3.972
C71	avC9#56	I13/I0/avC9#8	6.27332e-18	$X=23.591 $Y=2.1785
C72	I6/avC10#18	avC9#32	2.25778e-18	$X=13.7845 $Y=0.5705
C73	Set#18	CLK#43	1.16223e-17	$X=12.0235 $Y=4.68
C74	avC6#11	I17/avC10#15	9.02352e-18	$X=4.2475 $Y=0.693
C75	avC15#3	Set#56	2.3064e-18	$X=21.5475 $Y=4.133
C76	avC6#42	vdd!#68	1.12761e-17	$X=11.8615 $Y=1.376
C77	I14/I0/avC9#7	avC6#133	3.49338e-17	$X=24.143 $Y=4.3385
C78	CLK#60	I16/I0/avC7#9	4.73304e-18	$X=15.316 $Y=4.7985
C79	7_B0#22	vdd!#2	1.34233e-17	$X=4.237 $Y=0.6025
C80	I33/avC5#4	I33/avC7#13	2.12518e-18	$X=7.3375 $Y=1.835
C81	7_B0#14	gnd!#111	9.48621e-18	$X=1.3615 $Y=5.0565
C82	avC7#8	avC11#9	4.73448e-18	$X=4.6325 $Y=4.958
C83	avC6#122	avC9#56	2.18731e-17	$X=20.8985 $Y=1.823
C84	avC6#42	I6/avC10#2	1.02886e-17	$X=12.278 $Y=1.685
C85	avC6#141	I15/I0/avC9#11	4.88939e-18	$X=19.837 $Y=3.8345
C86	vdd!#36	I6/avC10#13	1.69419e-18	$X=13.5875 $Y=2.0485
C87	avC11#9	Set#8	6.32651e-17	$X=5.19 $Y=4.8365
C88	avC9#15	vdd!#68	1.62889e-17	$X=6.737 $Y=4.1405
C89	avC6#7	I17/I0/avC7#7	1.05601e-18	$X=1.5245 $Y=1.656
C90	avC8#16	CLK#115	4.17926e-17	$X=22.148 $Y=1.971
C91	avC6#123	Set#51	4.62166e-17	$X=20.728 $Y=4.798
C92	I17/I0/avC9#8	I17/avC10#13	2.88736e-18	$X=3.603 $Y=2.1025
C93	avC6#151	CLK#134	2.38885e-17	$X=23.709 $Y=3.668
C94	avC9#13	avC10#14	1.22337e-18	$X=6.7845 $Y=2.119
C95	I16/avC10#17	avC6#53	1.10794e-17	$X=13.3135 $Y=4.372
C96	avC6#151	I13/avC10#9	1.35778e-18	$X=25.604 $Y=2.126
C97	avC16	vdd!#189	1.71701e-17	$X=26.815 $Y=2.854
C98	avC12#11	I33/avC7#14	4.10083e-18	$X=8.642 $Y=0.7115
C99	I15/avC10#15	CLK#66	8.2179e-18	$X=18.2775 $Y=4.976
C100	avC15#8	I14/avC10	2.0505e-17	$X=21.9025 $Y=5.3065
C101	Set#4	vdd!#68	1.85379e-17	$X=4.78 $Y=1.2285
C102	avC6#131	I13/I0/avC7#2	1.78129e-18	$X=23.1545 $Y=1.26
C103	avC14#8	gnd!#5	4.34385e-18	$X=16.717 $Y=5.139
C104	vdd!#63	Set#57	1.74176e-17	$X=26.726 $Y=2.236
C105	avC6#131	vdd!#68	1.12596e-17	$X=24.167 $Y=1.3765
C106	avC6#72	gnd!#5	8.03345e-18	$X=20.5765 $Y=1.1995
C107	avC12#19	vdd!#68	3.25802e-17	$X=9.05 $Y=1.851
C108	avC8#10	gnd!#5	7.88175e-17	$X=15.443 $Y=0.4095
C109	vdd!#64	gnd!#5	8.38083e-18	$X=26.3945 $Y=1.0675
C110	avC9#59	gnd!#5	1.86161e-17	$X=22.449 $Y=5.489
C111	avC9#16	gnd!#5	1.84413e-17	$X=6.7295 $Y=5.489
C112	I13/I0/avC7#2	CLK#114	3.5596e-18	$X=22.5495 $Y=1.369
C113	CLK#110	avC15#2	3.53883e-18	$X=20.8395 $Y=4.774
C114	I6/avC10#18	Set#26	9.6638e-18	$X=14.062 $Y=0.581
C115	vdd!#9	Set#7	1.05703e-17	$X=5.7405 $Y=3.799
C116	Set#56	avC9#58	1.41547e-17	$X=22.2355 $Y=4.133
C117	7_B0#21	I33/avC7#2	3.37022e-18	$X=5.9645 $Y=1.653
C118	CLK#46	I18/I0/avC9#11	8.60141e-18	$X=9.214 $Y=4.353
C119	CLK#43	avC13#10	8.82292e-19	$X=11.9455 $Y=4.7785
C120	avC9#67	I13/I0/avC9#8	3.93307e-18	$X=24.824 $Y=2.1375
C121	avC8#16	CLK#114	8.93922e-18	$X=22.24 $Y=1.6875
C122	Set#51	CLK#112	6.37806e-17	$X=20.3325 $Y=4.6795
C123	I6/avC10#14	avC8#4	3.6638e-17	$X=13.9405 $Y=1.501
C124	I18/I0/avC9#11	avC6#16	3.73833e-18	$X=8.778 $Y=4.339
C125	avC6#5	7_B0#3	3.19455e-18	$X=0.7265 $Y=1.104
C126	CLK#68	I15/avC10#15	4.22748e-18	$X=18.3445 $Y=4.8455
C127	avC6#7	vdd!#68	1.29473e-17	$X=2.691 $Y=1.396
C128	I13/I0/avC7#3	vdd!#68	9.16293e-18	$X=22.5895 $Y=1.7705
C129	CLK#31	I6/I0/avC7#2	1.8581e-17	$X=10.161 $Y=1.313
C130	gnd!#111	avC7#4	8.11739e-18	$X=1.962 $Y=5.468
C131	I14/I0/avC7#9	CLK#145	1.35887e-17	$X=25.848 $Y=4.692
C132	7_B0#22	avC10#6	1.11125e-18	$X=4.664 $Y=0.581
C133	CLK#11	I17/avC10#14	1.47662e-17	$X=4.563 $Y=1.559
C134	I6/I0/avC9#5	vdd!#68	4.5677e-18	$X=11.904 $Y=2.147
C135	avC9#32	Set#26	1.27883e-17	$X=13.774 $Y=0.598
C136	vdd!#45	avC14#8	5.49888e-18	$X=17.0105 $Y=5.133
C137	I18/I0/avC7#9	CLK#36	1.39064e-17	$X=10.171 $Y=4.774
C138	CLK#44	avC9#24	3.54559e-17	$X=12.1705 $Y=1.63
C139	CLK#113	I15/I0/avC9#7	5.68734e-18	$X=19.397 $Y=3.9725
C140	Set#58	avC16#9	5.13293e-18	$X=26.8225 $Y=2.9285
C141	avC14#8	I15/avC10	2.0505e-17	$X=16.6625 $Y=5.3065
C142	I6/I0/avC9#5	I6/avC10#2	2.95337e-17	$X=12.3165 $Y=1.998
C143	avC8#10	I6/avC10#18	6.55337e-18	$X=14.4145 $Y=0.512
C144	vdd!#9	Set#8	1.47106e-17	$X=5.7665 $Y=4.3535
C145	Set#36	gnd!#5	1.138e-17	$X=14.175 $Y=4.327
C146	Set#59	CLK#134	8.04063e-18	$X=22.717 $Y=3.272
C147	avC8#9	avC9#42	1.77189e-18	$X=15.022 $Y=1.153
C148	avC6#65	vdd!#68	2.2839e-17	$X=18.8715 $Y=4.5985
C149	CLK#106	avC15#2	1.23451e-17	$X=20.858 $Y=4.7095
C150	CLK#24	I6/I0/avC7#3	3.12798e-18	$X=10.1275 $Y=1.5315
C151	I33/avC7#13	vdd!#68	1.52836e-17	$X=7.0785 $Y=2.0465
C152	avC9#5	I17/avC10#14	1.21032e-17	$X=4.5825 $Y=1.7805
C153	7_B0#21	avC10#10	1.06179e-18	$X=6.1725 $Y=1.2855
C154	I16/avC10#5	avC13#8	2.76821e-18	$X=11.535 $Y=5.2515
C155	avC9#9	vdd!#68	1.64473e-17	$X=7.1205 $Y=3.7575
C156	7_B0#22	I17/avC10#15	2.32599e-17	$X=4.808 $Y=0.6125
C157	vdd!#18	I6/I0/avC9#4	1.80954e-18	$X=11.281 $Y=3.547
C158	I13/I0/avC9#8	avC6#137	3.14487e-18	$X=24.243 $Y=1.5875
C159	vdd!#9	I33/avC7#2	1.4765e-18	$X=5.997 $Y=2.8215
C160	Set#9	vdd!#68	1.34193e-17	$X=5.392 $Y=4.558
C161	avC6#63	I16/avC10#15	1.19139e-18	$X=13.7825 $Y=4.917
C162	I13/I0/avC9#8	vdd!#68	4.44226e-18	$X=24.2075 $Y=2.147
C163	vdd!#57	avC16#5	3.50464e-18	$X=25.9815 $Y=1.1375
C164	avC10#11	gnd!#5	3.54938e-17	$X=7.5895 $Y=0.7645
C165	vdd!#37	avC8#4	3.56301e-17	$X=14.021 $Y=1.22
C166	avC9#62	avC16	8.76066e-18	$X=25.806 $Y=2.437
C167	avC6#144	avC16#12	3.13354e-18	$X=26.07 $Y=4.9735
C168	CLK#46	I18/I0/avC7#9	2.72437e-18	$X=9.713 $Y=4.8205
C169	avC14#3	vdd!#68	1.67224e-17	$X=15.848 $Y=4.1405
C170	CLK#68	I15/avC10#17	1.92525e-17	$X=18.237 $Y=4.3695
C171	I17/I0/avC9#8	vdd!#68	7.59845e-18	$X=2.7115 $Y=2.147
C172	I17/avC10#14	avC10#4	3.10735e-18	$X=4.586 $Y=1.3585
C173	Set#36	I16/I0/avC9#7	2.04558e-18	$X=13.8205 $Y=4.0685
C174	avC10#11	vdd!#68	1.26861e-17	$X=7.599 $Y=0.7675
C175	I16/avC10#11	avC9#21	9.54477e-17	$X=12.3215 $Y=3.9485
C176	CLK#121	avC6#131	1.071e-17	$X=23.5235 $Y=1.3645
C177	avC16#9	vdd!#189	1.68885e-18	$X=27.0295 $Y=3.3615
C178	CLK#134	avC15#11	3.09451e-18	$X=22.192 $Y=4.0275
C179	I15/I0/avC7#9	gnd!#5	3.63385e-18	$X=20.379 $Y=4.862
C180	avC6#64	gnd!#5	1.47302e-17	$X=15.609 $Y=4.7555
C181	avC6#20	gnd!#5	1.76511e-17	$X=10.0795 $Y=0.9895
C182	avC6#55	gnd!#5	8.86005e-18	$X=15.629 $Y=5.4955
C183	I15/avC10#17	I15/I0/avC9#7	5.12038e-17	$X=18.5195 $Y=3.9985
C184	vdd!#70	I14/avC10#11	1.57275e-18	$X=22.232 $Y=4.034
C185	I15/avC10#15	avC6#66	1.39317e-17	$X=18.4705 $Y=4.8395
C186	CLK#38	Set#16	2.0894e-17	$X=10.594 $Y=4.689
C187	avC9#13	I33/avC7#2	8.53894e-18	$X=6.189 $Y=2.0955
C188	avC9#67	I13/avC10#2	8.50087e-18	$X=25.1195 $Y=1.9865
C189	I6/avC10#15	Set#26	3.00082e-18	$X=13.9625 $Y=0.6155
C190	I17/avC10#9	avC9#6	7.8099e-18	$X=4.2575 $Y=1.8615
C191	7_B0#7	I17/I0/avC7#7	2.83852e-18	$X=0.8635 $Y=1.7255
C192	I17/avC10#13	avC9#6	4.37315e-18	$X=4.2065 $Y=2.0005
C193	avC9#66	Set#63	1.2701e-17	$X=26.114 $Y=0.598
C194	avC12#4	vdd!#68	2.1608e-18	$X=7.365 $Y=1.999
C195	CLK#116	I13/I0/avC7#2	1.86401e-17	$X=22.501 $Y=1.313
C196	CLK#113	I15/I0/avC9#11	1.10166e-17	$X=19.85 $Y=3.977
C197	vdd!#39	I15/avC10#5	5.02859e-17	$X=16.712 $Y=4.3395
C198	Set#36	avC6#53	1.01391e-17	$X=13.8385 $Y=4.5865
C199	CLK#45	I16/avC10#11	4.8181e-18	$X=11.9315 $Y=4.017
C200	avC9#45	gnd!#5	1.57652e-17	$X=17.209 $Y=4.8865
C201	avC13#8	gnd!#5	4.34385e-18	$X=11.4775 $Y=5.139
C202	I6/avC10#18	vdd!#37	1.73319e-17	$X=14.137 $Y=0.7535
C203	I16/I0/avC7#9	CLK#59	1.39064e-17	$X=15.411 $Y=4.774
C204	Set#8	I18/avC10#5	4.0831e-18	$X=5.9925 $Y=4.507
C205	avC9#5	vdd!#6	2.52425e-17	$X=4.8095 $Y=1.9265
C206	avC9#24	I6/I0/avC9#4	1.13547e-17	$X=11.233 $Y=2.1745
C207	Set#10	I18/avC10	2.58997e-18	$X=6.2805 $Y=5.316
C208	avC8#13	CLK#123	3.7225e-18	$X=20.7645 $Y=1.1375
C209	avC9#21	I16/avC10#7	2.91205e-18	$X=12.214 $Y=4.227
C210	vdd!#8	7_B0#22	8.40657e-18	$X=4.9305 $Y=0.9185
C211	CLK#125	I14/avC10#17	2.07263e-17	$X=23.477 $Y=4.3695
C212	Set#48	vdd!#68	1.5717e-17	$X=16.787 $Y=4.123
C213	Set#51	I15/I0/avC9#7	1.3376e-18	$X=19.586 $Y=4.1835
C214	CLK#32	I6/I0/avC7#2	8.67357e-18	$X=10.1395 $Y=1.431
C215	I16/avC10#11	vdd!#68	1.92924e-18	$X=12.3085 $Y=4.097
C216	I17/I0/avC7#6	7_B0#3	2.00256e-18	$X=0.8245 $Y=1.2155
C217	I15/avC10#5	vdd!#40	2.78151e-17	$X=16.8 $Y=4.755
C218	I15/avC10#17	avC6#66	1.10794e-17	$X=18.5535 $Y=4.372
C219	I15/avC10#5	avC14#11	1.22786e-18	$X=16.933 $Y=4.3225
C220	avC14#4	gnd!#5	1.94434e-17	$X=15.849 $Y=5.4475
C221	avC6#147	avC16#14	3.02476e-17	$X=26.2095 $Y=5.474
C222	vdd!#19	I16/avC10	1.75023e-17	$X=11.4045 $Y=5.325
C223	avC9#56	CLK#123	3.19154e-17	$X=21.6305 $Y=1.8425
C224	7_B0#22	avC10#11	1.1276e-18	$X=7.1125 $Y=0.718
C225	I16/avC10#15	avC6#53	1.39317e-17	$X=13.2305 $Y=4.8395
C226	CLK#132	I13/I0/avC9#4	1.63713e-18	$X=24.1685 $Y=1.743
C227	CLK#106	vdd!#68	1.80339e-17	$X=20.694 $Y=4.603
C228	CLK#45	I16/avC10#7	1.41666e-18	$X=12.041 $Y=4.2985
C229	Set#18	I16/avC10	2.36539e-18	$X=11.0495 $Y=5.3835
C230	CLK#68	I15/I0/avC9#7	6.99505e-18	$X=18.579 $Y=4.334
C231	avC6#66	I15/I0/avC7#9	1.3842e-18	$X=19.9455 $Y=4.816
C232	I18/avC10#15	avC6#16	1.39317e-17	$X=7.9905 $Y=4.8395
C233	Set#59	avC9#56	1.57619e-16	$X=22.721 $Y=2.427
C234	CLK#132	I13/avC10#14	1.10155e-17	$X=25.716 $Y=1.511
C235	avC11#8	avC9#14	3.41045e-18	$X=6.4415 $Y=5.0045
C236	7_B0#7	CLK#4	2.25382e-18	$X=0.733 $Y=1.394
C237	CLK#134	I15/I0/avC9#11	8.18807e-19	$X=20.3925 $Y=3.854
C238	Set#29	avC8#4	1.7611e-18	$X=14.271 $Y=2.257
C239	vdd!#24	avC13#8	5.49888e-18	$X=11.7705 $Y=5.133
C240	I15/avC10#6	vdd!#40	5.4082e-17	$X=16.802 $Y=5.2495
C241	I17/avC10#14	vdd!#170	3.49929e-18	$X=4.844 $Y=1.8715
C242	avC6#112	avC15#2	1.48124e-17	$X=20.858 $Y=4.997
C243	avC14#8	Set#46	6.47933e-18	$X=16.7575 $Y=5.326
C244	avC6#54	I18/I0/avC9#11	3.71545e-18	$X=9.6865 $Y=3.79
C245	I6/I0/avC9#5	avC6#45	3.14487e-18	$X=11.903 $Y=1.5875
C246	I14/I0/avC7#9	CLK#144	1.39064e-17	$X=25.891 $Y=4.774
C247	vdd!#11	I18/avC10	1.74768e-17	$X=6.1645 $Y=5.325
C248	vdd!#17	I16/avC10#6	2.14143e-17	$X=11.4445 $Y=4.221
C249	avC15#2	gnd!#5	1.12515e-17	$X=21.089 $Y=4.8625
C250	Set#51	avC6#66	8.46576e-18	$X=19.576 $Y=4.6705
C251	vdd!#48	avC15#8	1.15138e-17	$X=21.9595 $Y=5.104
C252	avC6#141	Set#59	6.99824e-17	$X=22.2685 $Y=3.022
C253	avC6#112	gnd!#5	1.74026e-17	$X=20.699 $Y=5.089
C254	avC6#70	I16/I0/avC9#7	2.68894e-18	$X=14.125 $Y=3.876
C255	CLK#11	7_B0#21	1.00122e-17	$X=5.748 $Y=1.3335
C256	CLK#64	avC14#11	1.1257e-18	$X=16.9615 $Y=4.028
C257	Set#59	I13/I0/avC9#8	3.64716e-18	$X=24.142 $Y=2.255
C258	I18/avC10#11	avC9#9	9.62001e-17	$X=7.0815 $Y=3.9485
C259	CLK#25	vdd!#68	1.81983e-17	$X=10.0825 $Y=1.4755
C260	I18/avC10#5	Set#15	2.70794e-18	$X=6.3405 $Y=4.248
C261	7_B0#7	CLK#5	3.93327e-18	$X=0.749 $Y=1.5275
C262	Set#8	avC11#3	5.21032e-18	$X=4.8445 $Y=4.4005
C263	CLK#68	avC6#66	3.71236e-17	$X=18.613 $Y=4.717
C264	I17/avC10#9	Set#6	1.45591e-18	$X=4.5 $Y=1.8725
C265	avC6#70	vdd!#68	1.08472e-17	$X=15.598 $Y=3.681
C266	I6/I0/avC7#3	avC12#14	3.58655e-18	$X=9.942 $Y=1.863
C267	avC8#4	I6/avC10#9	5.00029e-18	$X=13.605 $Y=1.6125
C268	I15/avC10#15	avC6#65	1.30448e-18	$X=18.636 $Y=4.7255
C269	vdd!#58	I13/avC10#15	1.74144e-17	$X=25.8365 $Y=0.6155
C270	avC8#10	avC9#38	2.24374e-18	$X=15.2015 $Y=0.744
C271	CLK#134	vdd!#46	3.52291e-17	$X=21.883 $Y=4.021
C272	vdd!#9	I18/avC10#11	1.29831e-17	$X=6.6275 $Y=4.1265
C273	Set#16	vdd!#18	2.42517e-17	$X=11.1845 $Y=4.4185
C274	CLK#123	I13/I0/avC7#3	1.62553e-18	$X=22.3415 $Y=1.7385
C275	I16/avC10#7	vdd!#68	2.5321e-18	$X=12.1805 $Y=4.3535
C276	I6/avC10#14	avC9#35	1.38491e-18	$X=14.5615 $Y=1.6725
C277	avC10#9	7_B0#20	1.11424e-17	$X=5.7345 $Y=1.2895
C278	avC6#64	I15/avC10#5	1.82183e-18	$X=16.213 $Y=4.62
C279	I17/avC10#14	avC10	1.34803e-18	$X=4.6255 $Y=1.7555
C280	avC6#146	avC16#12	1.92855e-18	$X=26.0965 $Y=5.0465
C281	Set#41	avC14#10	8.93926e-19	$X=16.7255 $Y=4.736
C282	avC9#67	Set#59	7.16527e-17	$X=25.0745 $Y=2.254
C283	CLK#62	I16/I0/avC9#11	1.33046e-17	$X=14.442 $Y=3.974
C284	Set#46	gnd!#5	2.17201e-17	$X=16.789 $Y=5.472
[...]
C4492	avC6#49	gnd!	3.12619e-19	$X=13.6355 $Y=4.5965
C4493	Set#24	gnd!	1.66712e-18	$X=14.1605 $Y=1.2685
C4494	Set#31	gnd!	3.40638e-17	$X=15.1395 $Y=1.221
C4495	CLK#54	gnd!	2.57418e-19	$X=15.459 $Y=4.6005
C4496	avC6#56	gnd!	1.08633e-18	$X=15.459 $Y=5.085
C4497	avC14	gnd!	1.28253e-19	$X=16.0875 $Y=4.981
C4498	Set#44	gnd!	1.60248e-18	$X=16.7005 $Y=4.82
C4499	avC9#44	gnd!	6.15374e-19	$X=17.5515 $Y=4.75
C4500	CLK#66	gnd!	1.6029e-18	$X=18.1455 $Y=5.133
C4501	CLK#72	gnd!	1.86731e-16	$X=17.165 $Y=0.9085
C4502	avC6#65	gnd!	3.64547e-19	$X=18.8715 $Y=4.5965
C4503	CLK#106	gnd!	1.46873e-19	$X=20.694 $Y=4.6005
C4504	avC6#112	gnd!	1.13655e-18	$X=20.694 $Y=5.085
C4505	avC15	gnd!	1.28253e-19	$X=21.318 $Y=4.981
C4506	Set#52	gnd!	2.37045e-18	$X=21.9275 $Y=4.82
C4507	avC8#14	gnd!	2.47965e-18	$X=21.888 $Y=1.1525
C4508	avC6#124	gnd!	9.20526e-19	$X=22.4125 $Y=0.9885
C4509	CLK#114	gnd!	9.33276e-21	$X=22.4125 $Y=1.4735
C4510	avC9#53	gnd!	6.49784e-19	$X=22.7805 $Y=4.75
C4511	CLK#126	gnd!	1.6029e-18	$X=23.379 $Y=5.133
C4512	I13/I0/avC7	gnd!	4.85736e-17	$X=23.132 $Y=1.259
C4513	avC6#132	gnd!	1.83253e-19	$X=24.108 $Y=4.5965
C4514	avC6#137	gnd!	1.83253e-19	$X=24.238 $Y=1.4785
C4515	avC9#60	gnd!	4.34745e-18	$X=25.699 $Y=1.253
C4516	CLK#141	gnd!	7.7773e-21	$X=25.929 $Y=4.6005
C4517	avC6#145	gnd!	8.14709e-19	$X=25.929 $Y=5.085
C4518	avC16#10	gnd!	7.1962e-19	$X=26.793 $Y=4.643
C4519	avC6#39	gnd!	3.11645e-18	$X=10.3775 $Y=4.6995
C4520	avC6#54	gnd!	3.05765e-18	$X=11.099 $Y=3.376
C4521	avC6#40	gnd!	6.69741e-18	$X=10.4305 $Y=1.342
C4522	Set#36	gnd!	7.68142e-18	$X=14.1815 $Y=4.3
C4523	avC6#64	gnd!	1.96891e-18	$X=15.6085 $Y=4.7475
C4524	avC6#70	gnd!	1.55482e-17	$X=15.6045 $Y=3.652
C4525	avC6#122	gnd!	2.79769e-18	$X=20.636 $Y=1.707
C4526	avC6#141	gnd!	1.80234e-17	$X=20.579 $Y=3.389
C4527	avC6#123	gnd!	1.85087e-18	$X=20.6825 $Y=4.881
C4528	avC6#151	gnd!	6.84988e-18	$X=25.13 $Y=3.654
C4529	avC6#153	gnd!	6.64265e-19	$X=25.8635 $Y=4.6845
C4530	7_B0#9	gnd!	1.52894e-17	$X=1.083 $Y=0.4965
C4531	avC6#11	gnd!	7.67009e-18	$X=2.13 $Y=0.989
C4532	CLK#11	gnd!	7.95823e-18	$X=4.1515 $Y=1.3435
C4533	avC9#5	gnd!	3.96937e-18	$X=4.428 $Y=2.125
C4534	Set#10	gnd!	6.68873e-18	$X=6.91 $Y=4.537
C4535	7_B0#22	gnd!	1.77629e-17	$X=5.301 $Y=0.535
C4536	avC9#13	gnd!	1.01685e-17	$X=7.593 $Y=2.252
C4537	CLK#45	gnd!	3.35865e-18	$X=10.6665 $Y=3.7015
C4538	avC6#38	gnd!	2.47232e-17	$X=7.7175 $Y=0.94
C4539	CLK#22	gnd!	1.5678e-17	$X=9.294 $Y=1.381
C4540	avC6#34	gnd!	4.23066e-19	$X=10.2745 $Y=5.0295
C4541	avC6#35	gnd!	1.48396e-17	$X=10.4575 $Y=1.0625
C4542	Set#18	gnd!	8.65288e-18	$X=9.5875 $Y=4.525
C4543	avC9#24	gnd!	6.64324e-18	$X=11.421 $Y=2.2535
C4544	avC9#29	gnd!	6.54218e-18	$X=13.608 $Y=2.1255
C4545	Set#30	gnd!	2.19053e-17	$X=16.013 $Y=2.7965
C4546	avC8#10	gnd!	2.96864e-17	$X=15.441 $Y=0.4095
C4547	CLK#62	gnd!	2.67807e-18	$X=14.573 $Y=4.005
C4548	avC6#63	gnd!	1.25488e-18	$X=15.5085 $Y=5.0245
C4549	avC9#43	gnd!	2.59334e-18	$X=15.652 $Y=2.0115
C4550	Set#43	gnd!	3.48715e-18	$X=16.909 $Y=4.573
C4551	CLK#64	gnd!	1.41916e-18	$X=16.8295 $Y=3.6235
C4552	avC9#51	gnd!	1.92212e-17	$X=17.9905 $Y=2.251
C4553	avC6#120	gnd!	2.4249e-19	$X=20.6435 $Y=1.1985
C4554	CLK#113	gnd!	2.5462e-18	$X=20.205 $Y=4.0085
C4555	CLK#134	gnd!	9.70699e-19	$X=21.9985 $Y=3.6355
C4556	Set#51	gnd!	9.50378e-18	$X=20.7525 $Y=4.5775
C4557	avC8#13	gnd!	3.17752e-17	$X=19.651 $Y=0.4095
C4558	avC9#56	gnd!	7.45852e-18	$X=21.815 $Y=2.2505
C4559	avC9#67	gnd!	6.1129e-18	$X=25.4445 $Y=2.123
C4560	avC6#150	gnd!	4.26612e-19	$X=25.9665 $Y=5.0245
C4561	CLK#138	gnd!	1.17932e-18	$X=25.4235 $Y=4.0045
C4562	Set#59	gnd!	2.15593e-17	$X=23.7095 $Y=2.6075
C4563	7_B0#5	gnd!	4.08117e-18	$X=0.2505 $Y=1.201
C4564	I17/I0/avC9#4	gnd!	8.50073e-18	$X=1.988 $Y=2.127
C4565	I17/I0/avC8	gnd!	1.48164e-16	$X=3.499 $Y=0.542
C4566	avC6#7	gnd!	6.47419e-18	$X=2.7005 $Y=1.3885
C4567	I17/I0/avC9#8	gnd!	2.4256e-18	$X=2.7215 $Y=2.1385
C4568	I17/avC10#2	gnd!	1.45796e-18	$X=3.3835 $Y=1.904
C4569	CLK#10	gnd!	4.74575e-18	$X=3.6125 $Y=1.0535
C4570	avC9#3	gnd!	5.45658e-19	$X=3.906 $Y=2.1795
C4571	vdd!#4	gnd!	2.27266e-17	$X=4.1625 $Y=0.589
C4572	I17/avC10#9	gnd!	1.34724e-18	$X=4.1565 $Y=1.761
C4573	I17/avC10#13	gnd!	2.68549e-19	$X=4.0365 $Y=2.081
C4574	I17/avC10#18	gnd!	2.59142e-17	$X=4.991 $Y=0.534
C4575	vdd!#7	gnd!	9.03258e-19	$X=4.991 $Y=1.9925
C4576	Set#1	gnd!	3.32734e-18	$X=5.26 $Y=1.5155
C4577	Set#7	gnd!	1.87261e-19	$X=5.3295 $Y=3.3415
C4578	Set#8	gnd!	7.15398e-18	$X=5.444 $Y=4.547
C4579	I33/avC7#2	gnd!	1.19366e-18	$X=5.9545 $Y=2.0605
C4580	7_B0#20	gnd!	1.06204e-17	$X=6 $Y=1.5425
C4581	I18/avC10	gnd!	5.04336e-20	$X=6.119 $Y=5.536
C4582	avC12#3	gnd!	2.42429e-17	$X=7.027 $Y=0.778
C4583	I18/avC10#11	gnd!	1.03159e-18	$X=7.0835 $Y=4.0905
C4584	I18/avC10#7	gnd!	4.77801e-19	$X=6.946 $Y=4.351
C4585	vdd!#13	gnd!	3.00715e-19	$X=6.9565 $Y=5.4785
C4586	avC9#9	gnd!	1.61452e-18	$X=7.127 $Y=3.7495
C4587	avC12#4	gnd!	2.54016e-18	$X=7.371 $Y=1.992
C4588	CLK#17	gnd!	3.20348e-18	$X=7.4945 $Y=5.0175
C4589	I18/avC10#17	gnd!	3.57826e-18	$X=7.744 $Y=4.041
C4590	avC12#12	gnd!	4.56816e-19	$X=8.068 $Y=1.8025
C4591	avC12#11	gnd!	2.63793e-17	$X=8.1195 $Y=0.835
C4592	I18/I0/avC9#7	gnd!	3.39741e-18	$X=8.426 $Y=3.9255
C4593	avC6#16	gnd!	1.6063e-18	$X=8.465 $Y=4.693
C4594	avC12#13	gnd!	4.67984e-19	$X=8.6505 $Y=1.917
C4595	I18/I0/avC9#11	gnd!	2.60725e-18	$X=9.158 $Y=3.933
C4596	avC6#26	gnd!	5.05976e-18	$X=10.039 $Y=1.0535
C4597	CLK#24	gnd!	2.04658e-18	$X=10.0345 $Y=1.3535
C4598	CLK#37	gnd!	4.19082e-19	$X=10.2735 $Y=4.583
C4599	Set#17	gnd!	5.22719e-19	$X=11.095 $Y=4.7085
C4600	I6/I0/avC9#4	gnd!	3.39864e-18	$X=11.176 $Y=2.127
C4601	vdd!#17	gnd!	2.12486e-18	$X=11.3435 $Y=4.08
C4602	I16/avC10	gnd!	8.37456e-19	$X=11.3505 $Y=5.536
C4603	I6/I0/avC8	gnd!	1.52907e-16	$X=12.4695 $Y=0.542
C4604	avC6#42	gnd!	6.24375e-18	$X=11.8655 $Y=1.369
C4605	I6/I0/avC9#5	gnd!	3.80462e-18	$X=11.9085 $Y=2.1385
C4606	I16/avC10#11	gnd!	1.23982e-18	$X=12.311 $Y=4.0905
C4607	I16/avC10#7	gnd!	6.56477e-19	$X=12.1815 $Y=4.351
C4608	vdd!#21	gnd!	6.81832e-19	$X=12.1825 $Y=5.484
C4609	avC9#21	gnd!	1.07173e-18	$X=12.351 $Y=3.7495
C4610	I6/avC10#2	gnd!	1.07395e-18	$X=12.583 $Y=1.904
C4611	CLK#40	gnd!	1.03805e-18	$X=12.7265 $Y=5.0175
C4612	CLK#42	gnd!	2.00023e-18	$X=12.819 $Y=1.0535
C4613	I16/avC10#17	gnd!	2.12125e-18	$X=12.9675 $Y=4.041
C4614	avC9#27	gnd!	9.06969e-19	$X=13.201 $Y=2.3125
C4615	vdd!#28	gnd!	1.52729e-17	$X=13.361 $Y=0.589
C4616	I6/avC10#9	gnd!	4.81402e-19	$X=13.362 $Y=1.761
C4617	I6/avC10#13	gnd!	1.15801e-18	$X=13.242 $Y=2.081
C4618	I16/I0/avC9#7	gnd!	2.27129e-18	$X=13.647 $Y=3.9255
C4619	avC6#53	gnd!	1.43236e-18	$X=13.6875 $Y=4.693
C4620	avC8#4	gnd!	1.72177e-18	$X=13.988 $Y=1.377
C4621	I6/avC10#18	gnd!	3.45099e-17	$X=14.196 $Y=0.534
C4622	I16/I0/avC9#11	gnd!	1.66587e-18	$X=14.3795 $Y=3.933
C4623	avC9#38	gnd!	5.20154e-17	$X=15.1395 $Y=0.829
C4624	avC9#35	gnd!	1.73595e-18	$X=15.1405 $Y=1.727
C4625	CLK#59	gnd!	1.97919e-19	$X=15.509 $Y=4.74
C4626	avC6#58	gnd!	2.09822e-19	$X=15.509 $Y=5.0065
C4627	avC9#40	gnd!	2.41821e-17	$X=15.6525 $Y=1.2625
C4628	Set#42	gnd!	5.31439e-19	$X=16.3275 $Y=4.7085
C4629	vdd!#38	gnd!	2.35491e-18	$X=16.5775 $Y=4.08
C4630	I15/avC10	gnd!	8.37456e-19	$X=16.582 $Y=5.536
C4631	CLK#65	gnd!	6.43383e-18	$X=17.0055 $Y=1.1975
C4632	I15/avC10#11	gnd!	5.49154e-19	$X=17.5385 $Y=4.0905
C4633	I15/avC10#7	gnd!	6.98659e-19	$X=17.4175 $Y=4.351
C4634	vdd!#42	gnd!	6.81832e-19	$X=17.417 $Y=5.484
C4635	avC9#48	gnd!	1.34201e-18	$X=17.5755 $Y=3.7495
C4636	CLK#67	gnd!	1.03805e-18	$X=17.9585 $Y=5.0175
C4637	I15/avC10#17	gnd!	1.73872e-18	$X=18.191 $Y=4.041
C4638	I15/I0/avC9#7	gnd!	2.21918e-18	$X=18.8685 $Y=3.9255
C4639	avC6#66	gnd!	6.66033e-19	$X=18.9105 $Y=4.693
C4640	I15/I0/avC9#11	gnd!	1.95949e-18	$X=19.601 $Y=3.933
C4641	avC6#71	gnd!	1.77716e-17	$X=20.6445 $Y=1.185
C4642	CLK#111	gnd!	1.70967e-18	$X=20.7385 $Y=4.647
C4643	avC6#114	gnd!	1.1834e-18	$X=20.684 $Y=5.012
C4644	Set#50	gnd!	6.49691e-19	$X=21.5065 $Y=4.669
C4645	avC8#11	gnd!	2.78233e-17	$X=21.4755 $Y=0.565
C4646	I14/avC10	gnd!	8.37456e-19	$X=21.8135 $Y=5.536
C4647	avC6#128	gnd!	1.60714e-17	$X=22.344 $Y=1.052
C4648	I14/avC10#11	gnd!	5.49154e-19	$X=22.766 $Y=4.0905
C4649	I14/avC10#7	gnd!	4.81132e-19	$X=22.653 $Y=4.351
C4650	vdd!#50	gnd!	1.00244e-18	$X=22.6435 $Y=5.4785
C4651	avC9#52	gnd!	8.10961e-19	$X=22.8 $Y=3.7495
C4652	CLK#124	gnd!	1.03805e-18	$X=23.1905 $Y=5.0175
C4653	I13/I0/avC9#4	gnd!	3.67367e-18	$X=23.4725 $Y=2.127
C4654	I14/avC10#17	gnd!	3.49091e-18	$X=23.415 $Y=4.041
C4655	I14/I0/avC9#7	gnd!	3.87575e-18	$X=24.09 $Y=3.9255
C4656	avC6#133	gnd!	1.86451e-19	$X=24.133 $Y=4.693
C4657	I13/I0/avC8	gnd!	1.48203e-16	$X=24.4765 $Y=0.542
C4658	avC6#131	gnd!	7.38058e-18	$X=24.1635 $Y=1.3685
C4659	I13/I0/avC9#8	gnd!	2.58806e-18	$X=24.204 $Y=2.1385
C4660	I13/avC10#2	gnd!	9.47559e-19	$X=24.8955 $Y=1.904
C4661	I14/I0/avC9#11	gnd!	5.71942e-18	$X=24.8225 $Y=3.933
C4662	CLK#131	gnd!	1.35464e-18	$X=25.14 $Y=1.0535
C4663	avC9#62	gnd!	4.77651e-19	$X=25.424 $Y=2.1795
C4664	vdd!#55	gnd!	2.23639e-17	$X=25.677 $Y=0.589
C4665	I13/avC10#9	gnd!	7.90993e-19	$X=25.6825 $Y=1.761
C4666	I13/avC10#13	gnd!	5.4039e-19	$X=25.562 $Y=2.081
C4667	CLK#145	gnd!	5.70759e-19	$X=25.98 $Y=4.583
C4668	avC16	gnd!	1.02942e-17	$X=26.2895 $Y=2.792
C4669	I13/avC10#18	gnd!	3.15371e-17	$X=26.5155 $Y=0.534
C4670	avC16#9	gnd!	8.74867e-19	$X=26.6485 $Y=3.7865
C4671	Set#57	gnd!	1.61602e-17	$X=26.8045 $Y=2.4625
C4672	vdd!#73	gnd!	2.40095e-17	$X=27.3595 $Y=3.075
C4673	vdd!#68	gnd!	1.32243e-16	$X=14.788 $Y=1.592
C4674	vdd!#186	gnd!	3.9153e-20	$X=0.305 $Y=1.9465
C4675	I17/I0/avC9#2	gnd!	5.16826e-20	$X=1.8855 $Y=2.1235
C4676	I17/avC10#11	gnd!	2.18238e-19	$X=4.183 $Y=1.926
C4677	avC7#10	gnd!	9.51812e-19	$X=4.5285 $Y=4.381
C4678	avC10	gnd!	4.02459e-19	$X=4.5855 $Y=1.9255
C4679	vdd!#164	gnd!	4.22964e-20	$X=5.5275 $Y=1.988
C4680	I33/avC7#3	gnd!	2.31587e-20	$X=5.9075 $Y=1.988
C4681	vdd!#158	gnd!	3.16934e-22	$X=6.4875 $Y=2.069
C4682	I33/avC5#5	gnd!	2.28796e-19	$X=6.89 $Y=2.068
C4683	I18/avC10#9	gnd!	3.71291e-20	$X=6.937 $Y=4.141
C4684	avC12#6	gnd!	1.88118e-19	$X=7.285 $Y=2.069
C4685	I18/I0/avC9	gnd!	6.34239e-18	$X=7.9525 $Y=3.576
C4686	I18/avC10#18	gnd!	2.88358e-19	$X=7.9045 $Y=3.937
C4687	I33/avC7#16	gnd!	1.11355e-20	$X=8.345 $Y=1.918
C4688	I18/I0/avC9#12	gnd!	4.99343e-20	$X=9.26 $Y=3.937
C4689	vdd!#148	gnd!	9.23598e-19	$X=9.509 $Y=1.9465
C4690	I6/I0/avC7#4	gnd!	2.3283e-19	$X=10.108 $Y=1.9465
C4691	I18/I0/avC7#6	gnd!	7.18332e-20	$X=10.208 $Y=4.123
C4692	vdd!#152	gnd!	3.12133e-20	$X=10.807 $Y=4.123
C4693	avC13#11	gnd!	1.99862e-19	$X=11.7675 $Y=4.14
C4694	I16/avC10#9	gnd!	2.16376e-19	$X=12.166 $Y=4.141
C4695	I6/avC10#3	gnd!	1.63067e-19	$X=12.429 $Y=2.1235
C4696	I16/I0/avC9	gnd!	1.04976e-17	$X=13.097 $Y=3.576
C4697	I16/avC10#18	gnd!	1.70963e-19	$X=13.1265 $Y=3.937
C4698	I6/avC10#11	gnd!	2.02504e-19	$X=13.383 $Y=1.926
C4699	vdd!#34	gnd!	2.46149e-19	$X=14.1815 $Y=1.926
C4700	I16/I0/avC9#12	gnd!	4.99343e-20	$X=14.4815 $Y=3.937
C4701	I16/I0/avC7#6	gnd!	7.256e-20	$X=15.4385 $Y=4.123
C4702	vdd!#126	gnd!	3.11979e-20	$X=16.0375 $Y=4.123
C4703	avC14#11	gnd!	1.95763e-19	$X=16.9945 $Y=4.14
C4704	I15/avC10#9	gnd!	2.16376e-19	$X=17.3945 $Y=4.141
C4705	I15/I0/avC9	gnd!	1.51536e-18	$X=18.2415 $Y=3.576
C4706	I15/I0/avC9#12	gnd!	4.99786e-19	$X=19.7035 $Y=3.937
C4707	vdd!#95	gnd!	3.31883e-20	$X=21.2685 $Y=4.123
C4708	I13/I0/avC7#4	gnd!	2.41016e-19	$X=22.4265 $Y=1.9465
C4709	I14/avC10#9	gnd!	3.74278e-19	$X=22.623 $Y=4.141
C4710	I14/I0/avC9	gnd!	5.58727e-18	$X=23.386 $Y=3.576
C4711	I13/avC10#3	gnd!	2.77631e-21	$X=24.726 $Y=2.1235
C4712	I14/I0/avC9#12	gnd!	1.82931e-19	$X=24.925 $Y=3.937
C4713	I14/I0/avC7#6	gnd!	1.05543e-19	$X=25.9005 $Y=4.123
C4714	vdd!#3	gnd!	3.54258e-19	$X=4.171 $Y=0.589
C4715	avC10#6	gnd!	2.44125e-19	$X=4.5725 $Y=0.589
C4716	I17/avC10#16	gnd!	6.822e-22	$X=4.9705 $Y=0.589
C4717	avC11#5	gnd!	2.44545e-19	$X=6.53 $Y=5.483
C4718	avC12	gnd!	4.26375e-21	$X=6.8465 $Y=0.779
C4719	I18/I0/avC8	gnd!	3.93234e-18	$X=8.067 $Y=5.419
C4720	I33/avC5	gnd!	1.17619e-19	$X=7.792 $Y=0.659
C4721	avC12#9	gnd!	7.9818e-21	$X=8.348 $Y=0.719
C4722	avC13#5	gnd!	2.44972e-19	$X=11.7635 $Y=5.483
C4723	I16/I0/avC8	gnd!	4.33528e-18	$X=13.188 $Y=5.419
C4724	avC8#6	gnd!	4.40469e-19	$X=13.781 $Y=0.589
C4725	avC14#5	gnd!	2.44972e-19	$X=16.997 $Y=5.483
C4726	I15/I0/avC8	gnd!	4.4103e-18	$X=18.309 $Y=5.419
C4727	avC15#5	gnd!	2.44972e-19	$X=22.2305 $Y=5.483
C4728	I14/I0/avC8	gnd!	5.18007e-18	$X=23.4295 $Y=5.419
C4729	avC16#6	gnd!	4.40469e-19	$X=26.1055 $Y=0.589
C4730	I17/I0/avC7#7	gnd!	2.61035e-19	$X=1.059 $Y=1.7675
C4731	7_B0#14	gnd!	2.89939e-19	$X=1.4525 $Y=4.811
C4732	I17/I0/avC9#5	gnd!	8.58053e-19	$X=3.479 $Y=2.412
C4733	I17/avC10#5	gnd!	2.58685e-18	$X=3.209 $Y=1.215
C4734	I17/avC10	gnd!	6.27913e-19	$X=3.2095 $Y=2.3015
C4735	avC7#8	gnd!	1.99202e-18	$X=3.914 $Y=4.886
C4736	avC10#4	gnd!	2.82933e-18	$X=4.5655 $Y=1.2895
C4737	vdd!#170	gnd!	3.96723e-19	$X=4.9975 $Y=2.09
C4738	avC11#9	gnd!	1.64738e-20	$X=5.0815 $Y=4.984
C4739	avC10#9	gnd!	2.04988e-17	$X=5.4915 $Y=1.023
C4740	avC11#10	gnd!	2.85689e-18	$X=6.5245 $Y=4.7855
C4741	I18/avC10#15	gnd!	2.87951e-18	$X=7.885 $Y=4.8685
C4742	avC12#19	gnd!	1.14777e-18	$X=9.053 $Y=1.8465
C4743	I6/I0/avC7#3	gnd!	1.96969e-18	$X=10.266 $Y=1.7675
C4744	vdd!#144	gnd!	9.39648e-19	$X=11.346 $Y=3.979
C4745	avC13#10	gnd!	1.56115e-18	$X=11.761 $Y=4.7845
C4746	I6/I0/avC9#6	gnd!	1.58941e-17	$X=12.5425 $Y=2.412
C4747	I6/avC10#5	gnd!	2.6563e-18	$X=12.4215 $Y=1.215
C4748	I6/avC10	gnd!	8.13821e-19	$X=12.4215 $Y=2.3015
C4749	I16/avC10#15	gnd!	2.55114e-18	$X=13.121 $Y=4.8685
C4750	avC8#5	gnd!	8.66361e-19	$X=13.78 $Y=1.126
C4751	vdd!#32	gnd!	8.61223e-19	$X=14.2015 $Y=1.974
C4752	Set#32	gnd!	1.56527e-17	$X=15.142 $Y=1.19
C4753	CLK#55	gnd!	4.06675e-19	$X=15.509 $Y=4.583
C4754	avC6#57	gnd!	2.92526e-19	$X=15.509 $Y=5.128
C4755	vdd!#119	gnd!	1.4231e-18	$X=16.5765 $Y=3.979
C4756	avC14#10	gnd!	1.56115e-18	$X=16.998 $Y=4.7845
C4757	I15/avC10#15	gnd!	2.55114e-18	$X=18.3565 $Y=4.8685
C4758	avC6#72	gnd!	2.64326e-18	$X=20.567 $Y=1.198
C4759	vdd!#70	gnd!	4.77748e-19	$X=21.8075 $Y=3.979
C4760	avC15#10	gnd!	1.32839e-18	$X=22.235 $Y=4.7845
C4761	I13/I0/avC7#3	gnd!	2.56969e-19	$X=22.589 $Y=1.7675
C4762	I14/avC10#15	gnd!	2.55114e-18	$X=23.5925 $Y=4.8685
C4763	I13/I0/avC9#5	gnd!	9.46051e-18	$X=24.6725 $Y=2.412
C4764	I13/avC10#5	gnd!	2.62175e-18	$X=24.751 $Y=1.215
C4765	I13/avC10	gnd!	2.10255e-18	$X=24.751 $Y=2.3015
C4766	avC16#5	gnd!	9.70475e-19	$X=26.1105 $Y=1.2265
C4767	Set#60	gnd!	2.04e-17	$X=26.651 $Y=1.2425
C4768	vdd!#59	gnd!	5.38344e-18	$X=26.5115 $Y=1.974
C4769	CLK#5	gnd!	1.91794e-19	$X=0.8175 $Y=1.5215
C4770	avC6#2	gnd!	4.6326e-18	$X=0.8185 $Y=0.945
C4771	avC6#5	gnd!	5.61831e-19	$X=0.8155 $Y=1.068
C4772	I17/I0/avC7#6	gnd!	3.13337e-18	$X=1.1985 $Y=1.214
C4773	I17/I0/avC7#11	gnd!	3.44117e-17	$X=1.053 $Y=0.694
C4774	I17/I0/avC8#6	gnd!	6.57729e-17	$X=1.8615 $Y=0.664
C4775	I17/avC10#7	gnd!	1.63725e-17	$X=3.2105 $Y=0.64
C4776	avC7#6	gnd!	9.0171e-19	$X=4.446 $Y=5.36
C4777	avC7#11	gnd!	8.41882e-18	$X=4.448 $Y=4.4585
C4778	avC11#2	gnd!	4.50537e-19	$X=4.723 $Y=4.907
C4779	Set#4	gnd!	1.55353e-18	$X=4.783 $Y=1.2255
C4780	avC11#6	gnd!	2.14947e-18	$X=6.524 $Y=5.453
C4781	avC11#8	gnd!	3.24928e-18	$X=6.114 $Y=5.137
C4782	avC11#12	gnd!	2.59278e-18	$X=6.5295 $Y=4.22
C4783	avC10#2	gnd!	1.59212e-18	$X=4.5715 $Y=1.853
C4784	avC10#5	gnd!	6.58939e-18	$X=4.8465 $Y=0.9285
C4785	avC10#7	gnd!	1.11667e-17	$X=4.5655 $Y=0.6215
C4786	avC9#14	gnd!	1.18354e-18	$X=6.7405 $Y=4.881
C4787	I33/avC5#2	gnd!	1.40495e-17	$X=7.807 $Y=0.762
C4788	I33/avC5#4	gnd!	7.13888e-18	$X=7.694 $Y=1.565
C4789	I33/avC5#6	gnd!	1.262e-17	$X=6.878 $Y=1.916
C4790	I18/avC10#13	gnd!	7.4631e-19	$X=7.886 $Y=5.4335
C4791	I33/avC7#12	gnd!	4.50585e-18	$X=7.0875 $Y=2.7805
C4792	avC6#17	gnd!	2.2271e-18	$X=8.02 $Y=4.1165
C4793	I33/avC7#17	gnd!	3.51729e-19	$X=8.329 $Y=1.843
C4794	I18/I0/avC8#6	gnd!	2.45406e-18	$X=9.249 $Y=5.406
C4795	CLK#32	gnd!	9.49008e-19	$X=10.0325 $Y=1.5215
C4796	avC6#25	gnd!	5.59069e-18	$X=10.0325 $Y=0.945
C4797	avC6#27	gnd!	7.47262e-19	$X=10.0315 $Y=1.068
C4798	I18/I0/avC7#7	gnd!	4.30206e-19	$X=10.0465 $Y=4.304
C4799	I18/I0/avC7#9	gnd!	1.96099e-18	$X=9.9065 $Y=4.856
C4800	I18/I0/avC7#11	gnd!	2.21227e-18	$X=10.0445 $Y=5.3795
C4801	avC6#30	gnd!	2.09822e-19	$X=10.2715 $Y=5.0065
C4802	avC6#31	gnd!	2.92526e-19	$X=10.2725 $Y=5.128
C4803	CLK#36	gnd!	4.23721e-19	$X=10.2715 $Y=4.74
C4804	avC6#32	gnd!	1.45039e-18	$X=10.263 $Y=5.012
C4805	avC13#2	gnd!	3.75925e-19	$X=10.6155 $Y=4.8565
C4806	I6/I0/avC7#2	gnd!	3.48876e-18	$X=10.406 $Y=1.214
C4807	I6/I0/avC7#7	gnd!	3.52471e-17	$X=10.264 $Y=0.694
C4808	avC13#6	gnd!	1.99598e-18	$X=11.761 $Y=5.452
C4809	avC13#8	gnd!	3.77078e-19	$X=11.4815 $Y=5.134
C4810	avC13#12	gnd!	4.8819e-19	$X=11.763 $Y=4.22
C4811	I6/I0/avC8#6	gnd!	6.63507e-17	$X=11.066 $Y=0.664
C4812	avC9#18	gnd!	1.82159e-18	$X=11.9735 $Y=4.881
C4813	I6/avC10#7	gnd!	1.60942e-17	$X=12.422 $Y=0.64
C4814	CLK#46	gnd!	1.08848e-18	$X=9.3035 $Y=4.7105
C4815	I16/avC10#13	gnd!	7.4631e-19	$X=13.121 $Y=5.4335
C4816	avC6#50	gnd!	1.77873e-18	$X=13.2085 $Y=4.1165
C4817	avC8#2	gnd!	1.51882e-18	$X=13.7805 $Y=1.889
C4818	avC8#7	gnd!	1.2876e-17	$X=13.7805 $Y=0.7065
C4819	I16/I0/avC8#6	gnd!	1.94663e-18	$X=14.4805 $Y=5.406
C4820	Set#25	gnd!	1.98908e-18	$X=13.991 $Y=1.2255
C4821	Set#33	gnd!	3.44107e-18	$X=14.465 $Y=1.5225
C4822	I16/I0/avC7#7	gnd!	1.19567e-18	$X=15.279 $Y=4.304
C4823	I16/I0/avC7#9	gnd!	2.32326e-18	$X=15.1395 $Y=4.856
C4824	I16/I0/avC7#11	gnd!	2.21207e-18	$X=15.279 $Y=5.3795
C4825	avC9#42	gnd!	1.9294e-18	$X=15.325 $Y=1.418
C4826	avC6#61	gnd!	1.1834e-18	$X=15.4585 $Y=5.012
C4827	CLK#61	gnd!	1.53842e-18	$X=14.6015 $Y=4.7105
C4828	avC14#2	gnd!	3.75906e-19	$X=15.8485 $Y=4.8565
C4829	avC14#6	gnd!	1.99598e-18	$X=16.998 $Y=5.452
C4830	avC14#8	gnd!	3.77078e-19	$X=16.7155 $Y=5.134
C4831	avC14#12	gnd!	4.79241e-19	$X=16.997 $Y=4.22
C4832	avC9#45	gnd!	1.82159e-18	$X=17.2065 $Y=4.881
C4833	I15/avC10#13	gnd!	7.4631e-19	$X=18.356 $Y=5.4335
C4834	avC6#67	gnd!	8.49511e-19	$X=18.397 $Y=4.1165
C4835	I15/I0/avC8#6	gnd!	1.94726e-18	$X=19.7115 $Y=5.406
C4836	I15/I0/avC7#7	gnd!	1.69303e-18	$X=20.5115 $Y=4.304
C4837	I15/I0/avC7#9	gnd!	2.64889e-18	$X=20.372 $Y=4.856
C4838	I15/I0/avC7#11	gnd!	2.21207e-18	$X=20.514 $Y=5.3795
C4839	avC6#73	gnd!	3.42727e-16	$X=18.5135 $Y=0.5905
C4840	avC6#80	gnd!	7.97641e-20	$X=18.423 $Y=1.758
C4841	avC6#115	gnd!	2.09822e-19	$X=20.747 $Y=5.0065
C4842	avC6#116	gnd!	2.92526e-19	$X=20.7455 $Y=5.128
C4843	CLK#110	gnd!	1.27279e-18	$X=20.7465 $Y=4.74
C4844	avC15#2	gnd!	2.09656e-19	$X=21.081 $Y=4.8565
C4845	avC15#6	gnd!	2.09512e-18	$X=22.235 $Y=5.452
C4846	avC15#8	gnd!	3.77078e-19	$X=21.9495 $Y=5.134
C4847	avC15#12	gnd!	5.25569e-19	$X=22.231 $Y=4.22
C4848	CLK#120	gnd!	3.24032e-19	$X=22.365 $Y=1.5215
C4849	avC6#127	gnd!	4.95299e-18	$X=22.3645 $Y=0.945
C4850	avC9#57	gnd!	1.24398e-18	$X=22.4395 $Y=4.881
C4851	I13/I0/avC7#2	gnd!	3.23135e-18	$X=22.7285 $Y=1.214
C4852	I13/I0/avC7#7	gnd!	3.61592e-17	$X=22.592 $Y=0.694
C4853	I14/avC10#13	gnd!	4.21348e-19	$X=23.591 $Y=5.4335
C4854	avC6#134	gnd!	1.321e-18	$X=23.586 $Y=4.1165
C4855	I13/I0/avC8#6	gnd!	6.64938e-17	$X=23.3855 $Y=0.664
C4856	I13/avC10#7	gnd!	1.60942e-17	$X=24.75 $Y=0.64
C4857	I14/I0/avC8#6	gnd!	1.71516e-18	$X=24.943 $Y=5.406
C4858	I14/I0/avC7#7	gnd!	2.36636e-18	$X=25.7445 $Y=4.304
C4859	I14/I0/avC7#9	gnd!	2.69663e-19	$X=25.6045 $Y=4.856
C4860	I14/I0/avC7#11	gnd!	1.67302e-19	$X=25.749 $Y=5.3795
C4861	avC6#144	gnd!	7.10171e-19	$X=25.9845 $Y=5.0065
C4862	avC6#146	gnd!	1.78972e-19	$X=25.9825 $Y=5.128
C4863	avC16#3	gnd!	7.75907e-19	$X=26.1035 $Y=1.946
C4864	avC16#7	gnd!	1.08811e-17	$X=26.11 $Y=0.7065
C4865	avC6#148	gnd!	2.61035e-19	$X=25.91 $Y=5.012
C4866	Set#62	gnd!	2.77079e-18	$X=26.3145 $Y=1.2255
C4867	vdd!#66	gnd!	5.51373e-19	$X=26.527 $Y=4.0185
C4868	vdd!#90	gnd!	1.40505e-20	$X=21.241 $Y=3.0355
C4869	vdd!#96	gnd!	6.52904e-19	$X=21.2925 $Y=4.018
C4870	vdd!#127	gnd!	2.985e-19	$X=16.0585 $Y=4.018
C4871	vdd!#149	gnd!	6.23767e-21	$X=9.4855 $Y=2.055
C4872	vdd!#153	gnd!	1.61709e-19	$X=10.824 $Y=4.018
C4873	vdd!#159	gnd!	4.98856e-19	$X=6.454 $Y=2.16
C4874	vdd!#165	gnd!	3.78256e-19	$X=5.5085 $Y=2.18
C4875	vdd!#187	gnd!	1.70858e-20	$X=0.2755 $Y=2.055
*
*
.ENDS LFSR_7_0
*
