*
*
*
*                       LINUX           Tue May  4 14:22:33 2021
*
*
*
*  PROGRAM  advgen
*
*  Name           : advgen - Quantus - (64-bit)
*  Version        : 20.1.2-p025
*  Build Date     : Thu Sep 3 13:54:09 PDT 2020
*
*  HSPICE LIBRARY
*
*!LENGTH_UNITS METERS
*
*
*

*
.SUBCKT dff_dynamic vdd! gnd! !CLK CLK D Q
*
*
*  caps2d version: 10
*
*
*       TRANSISTOR CARDS
*
*
MavD1_1	avC10	D#4	gnd!#9	gnd!#4	nmos1v#20ivpcell#20gpdk090	L=1e-07
+ W=2.4e-07
+ AD=1.44e-14	AS=6.72e-14	PD=3.6e-07	PS=1.04e-06
+ simW=2.4e-07 fw=2.4e-07
MavD1_2	avC7#6	!CLK#5	avC10	gnd!#4	nmos1v#20ivpcell#20gpdk090	L=1e-07
+ W=2.4e-07
+ AD=6.72e-14	AS=1.44e-14	PD=1.04e-06	PS=3.6e-07
+ simW=2.4e-07 fw=2.4e-07
MavD1_5	Q#1	CLK#7	avC8	gnd!#4	nmos1v#20ivpcell#20gpdk090	L=1e-07
+ W=4.2e-07
+ AD=6.72e-14	AS=1.176e-13	PD=7.4e-07	PS=1.4e-06	M=2
+ simW=4.2e-07 fw=4.2e-07
MavD1_3	avC8#5	avC7	gnd!	gnd!#4	nmos1v#20ivpcell#20gpdk090	L=1e-07
+ W=4.2e-07
+ AD=6.72e-14	AS=1.176e-13	PD=7.4e-07	PS=1.4e-06	M=2
+ simW=4.2e-07 fw=4.2e-07
MavD7_1	avC11	D#1	vdd!#9	vdd!#7	pmos1v#20ivpcell#20gpdk090	L=1e-07
+ W=4.8e-07
+ AD=2.88e-14	AS=1.344e-13	PD=6e-07	PS=1.52e-06
+ simW=4.8e-07 fw=4.8e-07
MavD7_2	avC7#4	CLK#5	avC11	vdd!#7	pmos1v#20ivpcell#20gpdk090	L=1e-07
+ W=4.8e-07
+ AD=1.344e-13	AS=2.88e-14	PD=1.52e-06	PS=6e-07
+ simW=4.8e-07 fw=4.8e-07
MavD7_5	Q#4	!CLK#8	avC9#5	vdd!#7	pmos1v#20ivpcell#20gpdk090	L=1e-07
+ W=8.4e-07
+ AD=1.344e-13	AS=2.352e-13	PD=1.16e-06	PS=2.24e-06	M=2
+ simW=8.4e-07 fw=8.4e-07
MavD7_3	avC9#2	avC7	vdd!	vdd!#7	pmos1v#20ivpcell#20gpdk090	L=1e-07
+ W=8.4e-07
+ AD=1.344e-13	AS=2.352e-13	PD=1.16e-06	PS=2.24e-06	M=2
+ simW=8.4e-07 fw=8.4e-07
*
*
*       RESISTOR AND CAP/DIODE CARDS
*
Rg1	CLK#12	CLK#6	    1.1140	$mt3	$X=2.203 $Y=1.355
Rh1	CLK#2	CLK#6	    2.8000	$mt2	$X=0.81 $Y=1.355
Rh4	CLK#11	CLK#12	    1.5055	$mt2	$X=3.5975 $Y=1.2105
Rh2	!CLK#7	!CLK#3	    2.3093	$mt2	$X=1.7725 $Y=1.07
Rh3	avC9#8	avC9#4	    2.9790	$mt2	$X=2.3105 $Y=2.1375
Ri58	gnd!#5	gnd!	    0.5667	$mt1	$X=1.94 $Y=0.07
Ri61	gnd!#10	gnd!	    0.3533	$mt1	$X=0.26 $Y=0.3375
Ri64	gnd!#5	gnd!#4	   15.0000	$mt1	$X=0.24 $Y=0.04
Ri66	gnd!#10	gnd!#9	   15.0000	$mt1	$X=0.26 $Y=0.635
Ri3	CLK#2	CLK	2.824e-02	$mt1	$X=0.83 $Y=1.41
Ri4	CLK#3	CLK#2	6.452e-03	$mt1	$X=0.81 $Y=1.355
Ri5	CLK#4	CLK	6.452e-03	$mt1	$X=0.8475 $Y=1.475
Ri7	CLK#4	CLK#3	2.824e-02	$mt1	$X=0.835 $Y=1.415
Ri39	CLK#11	CLK#10	    1.4000	$mt1	$X=3.595 $Y=1.065
Ri29	avC8#6	avC8	    0.9970	$mt1	$X=2.78 $Y=0.815
Ri32	avC8#6	avC8#5	   15.0000	$mt1	$X=1.84 $Y=0.545
Ri49	vdd!#8	vdd!	7.762e-02	$mt1	$X=0.32 $Y=2.87
Ri50	vdd!#10	vdd!#8	    0.4867	$mt1	$X=0.26 $Y=2.405
Ri54	vdd!#8	vdd!#7	   15.0000	$mt1	$X=0.32 $Y=2.74
Ri55	vdd!#10	vdd!#9	   15.0000	$mt1	$X=0.26 $Y=1.95
Ri8	!CLK#1	!CLK	8.163e-03	$mt1	$X=0.86 $Y=0.99
Ri10	!CLK#4	!CLK#3	8.163e-03	$mt1	$X=0.81 $Y=1.045
Ri11	!CLK#4	!CLK#1	1.294e-02	$mt1	$X=0.835 $Y=1.0175
Ri26	!CLK#7	!CLK#6	   11.4000	$mt1	$X=2.685 $Y=1.48
Ri33	Q#2	Q	    0.4367	$mt1	$X=3.2 $Y=0.948
Ri35	Q#5	Q	    0.6200	$mt1	$X=3.2 $Y=1.4845
Ri37	Q#2	Q#1	   15.0000	$mt1	$X=3.2 $Y=0.545
Ri38	Q#5	Q#4	    5.0000	$mt1	$X=3.2 $Y=2.13
Ri13	avC9	avC9#4	2.667e-03	$mt1	$X=1.8525 $Y=2.13
Ri14	avC9	avC9#2	    5.0000	$mt1	$X=1.84 $Y=2.13
Ri23	avC9#5	avC9#8	2.667e-03	$mt1	$X=2.7675 $Y=2.13
Ri15	avC7#2	avC7	    5.4073	$mt1	$X=1.4405 $Y=1.2
Ri16	avC7#2	avC7#3	    0.5283	$mt1	$X=1.18 $Y=1.485
Ri18	avC7#7	avC7#2	    0.4750	$mt1	$X=1.18 $Y=0.9475
Ri20	avC7#3	avC7#4	   15.0000	$mt1	$X=0.9 $Y=1.95
Ri21	avC7#7	avC7#6	   15.0000	$mt1	$X=0.9 $Y=0.635
Rj4	CLK	CLK#5	   33.2297	$poly	$X=0.69 $Y=1.6425
Rj15	CLK#7	CLK#10	   21.2198	$poly	$X=3.4775 $Y=0.985
Rj1	D#1	D#2	   50.0688	$poly	$X=0.47 $Y=1.5055
Rj2	D#2	D	   11.0694	$poly	$X=0.47 $Y=1.2
Rj3	D#2	D#4	   43.5688	$poly	$X=0.47 $Y=0.9275
Rj5	!CLK	!CLK#5	   33.2297	$poly	$X=0.69 $Y=0.8225
Rj11	!CLK#8	!CLK#6	   22.6608	$poly	$X=2.8725 $Y=1.48
*
*       CAPACITOR CARDS
*
*
C1	!CLK#3	avC9#4	1.65256e-18	$X=1.4715 $Y=1.534
C2	avC9#8	!CLK#6	3.13484e-18	$X=2.683 $Y=1.5875
C3	CLK#3	avC7#2	1.5462e-17	$X=0.92 $Y=1.3075
C4	CLK#2	avC7#3	4.12322e-18	$X=0.9075 $Y=1.5315
C5	!CLK#7	avC9#4	5.45471e-18	$X=2.29 $Y=1.751
C6	CLK#12	Q	7.21319e-18	$X=3.2145 $Y=1.241
C7	D#1	CLK#5	4.15324e-17	$X=0.588 $Y=1.971
C8	Q	!CLK#6	1.37028e-18	$X=2.919 $Y=1.359
C9	!CLK#6	vdd!#7	2.28495e-17	$X=2.6665 $Y=1.489
C10	avC9#4	avC7#3	1.88854e-18	$X=1.297 $Y=1.873
C11	!CLK#7	Q	1.53568e-17	$X=3.0905 $Y=1.2455
C12	Q	CLK#11	2.13766e-17	$X=3.3405 $Y=1.158
C13	!CLK#7	avC9#8	3.45684e-17	$X=2.6555 $Y=1.753
C14	!CLK#3	gnd!#4	8.23566e-18	$X=1.1065 $Y=1.069
C15	Q	vdd!#7	4.22837e-18	$X=3.1715 $Y=1.23
C16	CLK#2	vdd!#7	6.42246e-18	$X=0.812 $Y=1.371
C17	avC9#4	gnd!#4	2.76761e-18	$X=1.9415 $Y=2.133
C18	D#4	!CLK#5	3.0322e-17	$X=0.589 $Y=0.6045
C19	!CLK#7	avC7#3	8.14618e-19	$X=1.4975 $Y=1.655
C20	!CLK#7	CLK#11	7.38139e-18	$X=3.3065 $Y=1.1495
C21	CLK#3	vdd!#7	1.0058e-18	$X=0.8105 $Y=1.3565
C22	!CLK#7	gnd!#4	8.87949e-18	$X=2.635 $Y=1.372
C23	CLK#2	avC7#4	7.68184e-19	$X=0.8355 $Y=1.578
C24	!CLK#7	vdd!#7	1.2204e-17	$X=2.5515 $Y=1.424
C25	avC9#8	gnd!#4	2.3224e-18	$X=2.6765 $Y=2.145
C26	avC9#8	vdd!#7	8.50202e-18	$X=2.5885 $Y=2.1585
C27	D#1	vdd!#7	2.39373e-17	$X=0.4775 $Y=1.945
C28	avC7#2	gnd!#4	3.45539e-18	$X=1.1795 $Y=1.2155
C29	!CLK#3	CLK#3	2.46793e-17	$X=0.8625 $Y=1.297
C30	CLK#5	vdd!#7	9.32858e-18	$X=0.6935 $Y=2.006
C31	CLK#6	avC7#3	1.9759e-18	$X=1.16 $Y=1.638
C32	CLK#11	gnd!#4	2.46546e-17	$X=3.595 $Y=1.0545
C33	avC7#2	vdd!#7	6.71503e-18	$X=1.175 $Y=1.24
C34	!CLK#3	avC7#2	2.55299e-17	$X=1.1545 $Y=1.166
C35	D#4	gnd!#4	2.4754e-17	$X=0.4695 $Y=0.6305
C36	CLK#6	!CLK#3	3.31536e-17	$X=1.255 $Y=1.204
C37	CLK#2	avC7#2	4.93169e-18	$X=0.9685 $Y=1.2945
C38	!CLK#5	gnd!#4	8.87345e-18	$X=0.6895 $Y=0.583
C39	CLK#6	avC9#4	9.59887e-18	$X=1.662 $Y=1.715
C40	avC7#3	vdd!#7	1.1007e-17	$X=1.038 $Y=1.7825
C41	avC7#3	D#1	3.55681e-18	$X=0.722 $Y=1.863
C42	CLK#12	avC9#4	1.63713e-18	$X=2.6085 $Y=1.743
C43	CLK#6	!CLK#7	1.02144e-17	$X=1.9855 $Y=1.3625
C44	CLK#12	!CLK#7	3.55372e-17	$X=2.955 $Y=1.3615
C45	avC7#3	CLK#5	1.04332e-17	$X=0.831 $Y=1.907
C46	CLK#12	avC9#8	8.76637e-18	$X=2.98 $Y=1.745
C47	CLK#6	gnd!#4	4.67592e-18	$X=1.42 $Y=1.3545
C48	CLK#6	vdd!#7	8.05074e-18	$X=1.4005 $Y=1.401
C49	CLK#12	gnd!#4	2.24861e-18	$X=3.2795 $Y=1.351
C50	!CLK#3	CLK#2	5.26688e-17	$X=0.8915 $Y=1.275
C51	!CLK#7	avC7#2	1.78129e-18	$X=1.5945 $Y=1.26
C52	CLK#6	avC7#2	3.07923e-18	$X=1.255 $Y=1.259
C53	CLK#12	vdd!#7	2.3454e-17	$X=3.162 $Y=1.405
C54	D	vdd!#7	2.83046e-17	$X=0.426 $Y=1.248
C55	!CLK#8	vdd!#7	5.976e-17	$X=2.8905 $Y=1.979
C56	avC9#5	avC7	1.56444e-18	$X=2.7595 $Y=2.041
C57	avC7	vdd!#7	6.28902e-17	$X=1.537 $Y=1.667
C58	!CLK#3	avC8#6	2.40193e-18	$X=1.562 $Y=0.817
C59	avC7	!CLK#8	2.54343e-18	$X=2.8755 $Y=1.8005
C60	avC8	!CLK#7	4.16307e-17	$X=2.6955 $Y=1.279
C61	avC7#7	!CLK#5	6.69341e-18	$X=0.828 $Y=0.627
C62	!CLK	CLK	9.66966e-18	$X=0.8345 $Y=1.217
C63	avC7#2	D	5.83861e-18	$X=0.888 $Y=1.212
C64	!CLK	D	1.6726e-17	$X=0.66 $Y=1.065
C65	vdd!	D#1	6.99978e-18	$X=0.4995 $Y=1.9475
C66	avC8	avC7	2.33726e-18	$X=2.5685 $Y=0.8775
C67	vdd!	CLK#5	8.61344e-18	$X=0.7105 $Y=2.0075
C68	!CLK#7	avC9#5	2.03012e-18	$X=2.736 $Y=1.5455
C69	CLK	D	1.45215e-17	$X=0.6515 $Y=1.368
C70	Q#2	CLK#11	3.29326e-18	$X=3.353 $Y=0.801
C71	vdd!	!CLK#8	1.63518e-17	$X=2.8895 $Y=1.9905
C72	avC9#8	Q#5	3.79813e-17	$X=3.0345 $Y=2.057
C73	vdd!#10	D#1	1.48207e-17	$X=0.3625 $Y=1.998
C74	CLK#6	vdd!	9.16464e-18	$X=1.4355 $Y=1.4195
C75	CLK#12	vdd!	8.31277e-18	$X=3.154 $Y=1.426
C76	avC7#7	gnd!#4	6.86924e-18	$X=1.0395 $Y=0.6945
C77	avC9#5	CLK#7	2.4955e-18	$X=3.266 $Y=1.234
C78	avC9#5	vdd!#7	4.74667e-17	$X=2.7655 $Y=2.4385
C79	avC7#2	avC8#6	3.78284e-18	$X=1.48 $Y=0.964
C80	!CLK#7	avC7	1.82099e-17	$X=2.5595 $Y=1.3635
C81	vdd!	avC7	6.42229e-17	$X=1.7485 $Y=1.748
C82	avC8	!CLK#6	4.70177e-18	$X=2.6965 $Y=1.4565
C83	CLK	D#1	1.20675e-17	$X=0.613 $Y=1.7605
C84	!CLK#3	vdd!	2.08858e-18	$X=1.1395 $Y=1.145
C85	avC9#4	vdd!	9.76346e-17	$X=1.9195 $Y=2.1475
C86	avC8	Q#2	9.1065e-17	$X=3.1985 $Y=0.637
C87	!CLK#5	avC7	1.79884e-18	$X=0.7105 $Y=0.596
C88	!CLK#7	vdd!	2.39703e-18	$X=2.56 $Y=1.4445
C89	avC8	CLK#7	3.17169e-17	$X=3.2475 $Y=0.6465
C90	gnd!#10	!CLK#5	3.14808e-18	$X=0.475 $Y=0.564
C91	!CLK	D#4	9.17821e-18	$X=0.5885 $Y=0.7405
C92	avC9#8	vdd!	3.35629e-17	$X=2.5965 $Y=2.159
C93	CLK#3	!CLK	3.21933e-18	$X=0.816 $Y=1.243
C94	CLK#11	avC9#5	3.43419e-18	$X=3.5695 $Y=1.161
C95	vdd!	gnd!#4	1.41225e-16	$X=1.6505 $Y=2.328
C96	avC9#8	avC7	2.47356e-18	$X=2.5955 $Y=2.0625
C97	vdd!#10	avC7#3	1.27339e-17	$X=0.598 $Y=1.932
C98	CLK	avC7#3	3.02508e-17	$X=0.947 $Y=1.643
C99	avC8	Q#1	2.56015e-18	$X=3.198 $Y=0.5445
C100	avC7#2	!CLK	1.57736e-17	$X=1.018 $Y=1.099
C101	avC9#4	!CLK#8	6.06948e-19	$X=2.299 $Y=2.0705
C102	D	vdd!#10	1.27471e-17	$X=0.3065 $Y=1.7855
C103	Q#5	vdd!#7	2.70765e-18	$X=3.1445 $Y=2.0265
C104	avC9#5	!CLK#8	3.43756e-17	$X=3.1695 $Y=2.0875
C105	avC7#7	!CLK	2.49107e-17	$X=0.9605 $Y=0.799
C106	avC9#5	Q#5	4.31147e-17	$X=3.2045 $Y=2.0525
C107	!CLK	avC7	2.98644e-18	$X=0.8785 $Y=0.9815
C108	avC8#6	!CLK	9.51586e-19	$X=1.324 $Y=0.8195
C109	avC8	!CLK#8	2.58976e-18	$X=3.1395 $Y=1.6105
C110	Q	!CLK#8	3.99178e-18	$X=3.193 $Y=1.281
C111	gnd!#10	D	1.24334e-17	$X=0.2915 $Y=0.691
C112	!CLK#7	avC8#6	8.61896e-18	$X=2.096 $Y=0.8925
C113	avC7	!CLK#6	5.09808e-18	$X=2.667 $Y=1.4755
C114	avC7#3	vdd!	3.88055e-17	$X=1.059 $Y=1.787
C115	gnd!#10	avC7#7	7.17383e-18	$X=0.5695 $Y=0.6045
C116	Q#5	!CLK#6	5.37841e-19	$X=2.8365 $Y=1.6385
C117	CLK#12	avC8	2.51118e-17	$X=3.268 $Y=1.2595
C118	CLK#6	D	2.20564e-18	$X=0.8435 $Y=1.2705
C119	CLK	avC7	3.05145e-18	$X=0.8825 $Y=1.4785
C120	vdd!#10	CLK#5	4.89771e-18	$X=0.4875 $Y=2.027
C121	CLK#5	avC7	1.98617e-18	$X=0.7205 $Y=1.9805
C122	avC9#8	!CLK#8	1.8072e-17	$X=2.8145 $Y=2.078
C123	vdd!	avC9#5	1.09671e-16	$X=2.777 $Y=2.4105
C124	CLK#11	avC8	5.70014e-17	$X=3.5735 $Y=1.028
C125	!CLK#3	CLK	2.36104e-18	$X=0.9395 $Y=1.3265
C126	Q	CLK#7	9.4258e-18	$X=3.2055 $Y=1.1665
C127	CLK#7	!CLK#8	1.42726e-17	$X=3.1985 $Y=1.3065
C128	!CLK	gnd!#4	2.25132e-17	$X=0.8345 $Y=0.9675
C129	!CLK#3	avC7#7	3.16028e-18	$X=1.057 $Y=0.7935
C130	D	avC7	1.59278e-18	$X=0.497 $Y=1.212
C131	avC7#2	vdd!	3.10019e-18	$X=1.1945 $Y=1.2505
C132	avC8#6	gnd!#4	8.00077e-18	$X=1.839 $Y=0.6645
C133	Q#5	!CLK#8	3.30547e-17	$X=3.1875 $Y=2.0015
C134	avC7#7	D#4	2.25837e-18	$X=0.719 $Y=0.6585
C135	avC7#2	CLK	1.56767e-17	$X=1.025 $Y=1.3375
C136	avC8	avC7#7	9.18232e-19	$X=1.1125 $Y=0.689
C137	avC7	CLK#7	3.25687e-18	$X=2.9845 $Y=0.797
C138	Q#5	vdd!	5.39872e-18	$X=3.141 $Y=2.0285
C139	D	!CLK#3	2.53101e-17	$X=0.7265 $Y=1.144
C140	!CLK#3	avC7	1.46864e-17	$X=1.16 $Y=1.085
C141	CLK#2	D	5.63286e-18	$X=0.683 $Y=1.308
C142	CLK#12	!CLK#8	1.03987e-18	$X=3.2345 $Y=1.5245
C143	!CLK#7	Q#5	1.06195e-17	$X=3.018 $Y=1.8095
C144	CLK#11	!CLK#8	2.11471e-18	$X=3.523 $Y=1.1895
C145	CLK#12	avC9#5	2.10947e-17	$X=3.2765 $Y=1.53
C146	CLK	vdd!#7	2.35816e-17	$X=0.838 $Y=1.512
C147	CLK#6	avC7	6.84935e-18	$X=1.4535 $Y=1.3485
C148	Q#2	CLK#7	1.52921e-17	$X=3.2065 $Y=0.644
C149	gnd!#10	D#4	9.41502e-18	$X=0.3555 $Y=0.584
C150	avC8	gnd!#4	7.09661e-17	$X=3.174 $Y=0.546
C151	avC7	gnd!#4	5.77644e-17	$X=1.826 $Y=1.2865
C152	avC9#5	gnd!#4	1.72991e-17	$X=3.2585 $Y=2.4465
C153	CLK#7	gnd!#4	7.774e-17	$X=3.269 $Y=0.678
C154	avC7#7	avC8#6	2.60022e-18	$X=1.3365 $Y=0.683
C155	avC8#6	avC7	6.12112e-17	$X=1.8385 $Y=0.6935
C156	avC8	Q	2.78236e-18	$X=3.1985 $Y=1.1955
C157	CLK#3	D	1.66902e-17	$X=0.7265 $Y=1.318
C158	D	gnd!#4	2.25835e-17	$X=0.407 $Y=1.2075
C159	avC9#4	avC7	4.09057e-17	$X=1.931 $Y=2.053
C160	CLK#6	avC7#7	3.92706e-19	$X=1.1325 $Y=0.8555
C161	CLK#3	avC7	4.08127e-19	$X=0.827 $Y=1.3455
C162	!CLK#7	CLK#7	6.98871e-19	$X=2.8225 $Y=1.1665
C163	vdd!	gnd!	3.36788e-18	$X=1.646 $Y=1.2405
C164	!CLK	gnd!	5.59686e-18	$X=0.873 $Y=0.9415
C165	D	gnd!	2.95615e-18	$X=0.491 $Y=1.1545
C166	Q	gnd!	4.56361e-18	$X=3.159 $Y=1.195
C167	D#1	gnd!	3.67354e-19	$X=0.5095 $Y=1.8855
C168	CLK#5	gnd!	5.72122e-19	$X=0.7175 $Y=1.954
C169	D#4	gnd!	9.83557e-18	$X=0.4975 $Y=0.6255
C170	!CLK#5	gnd!	1.01837e-17	$X=0.7085 $Y=0.5795
C171	CLK#7	gnd!	1.6275e-17	$X=2.9285 $Y=0.626
C172	CLK#6	gnd!	9.26277e-18	$X=1.44 $Y=1.273
C173	CLK#12	gnd!	4.30601e-18	$X=3.114 $Y=1.2575
C174	avC7	gnd!	4.63254e-17	$X=1.7315 $Y=0.843
C175	!CLK#6	gnd!	4.29862e-19	$X=2.6615 $Y=1.4565
C176	!CLK#3	gnd!	1.21412e-17	$X=1.149 $Y=1.018
C177	CLK#2	gnd!	3.6457e-18	$X=0.836 $Y=1.3245
C178	avC9#4	gnd!	2.23623e-18	$X=1.9115 $Y=1.9615
C179	avC8	gnd!	1.49567e-16	$X=2.457 $Y=0.492
C180	!CLK#7	gnd!	6.96275e-18	$X=2.536 $Y=1.278
C181	avC9#8	gnd!	2.08719e-18	$X=2.5705 $Y=1.9695
C182	CLK#11	gnd!	3.73872e-19	$X=3.506 $Y=1.026
C183	vdd!#7	gnd!	3.73872e-19	$X=1.4265 $Y=1.072
C184	avC7#3	gnd!	2.56969e-19	$X=1.065 $Y=1.712
C185	avC9#5	gnd!	6.25604e-19	$X=2.668 $Y=1.71
C186	avC7#2	gnd!	3.13337e-18	$X=1.199 $Y=1.182
C187	avC7#7	gnd!	3.56937e-17	$X=1.0575 $Y=0.6865
C188	avC8#6	gnd!	6.85604e-17	$X=1.8295 $Y=0.6525
C189	Q#2	gnd!	1.89366e-17	$X=3.1535 $Y=0.634
C190	Q#5	gnd!	1.17514e-18	$X=3.1215 $Y=1.9375
*
*
.ENDS dff_dynamic
*
