*
*
*
*                       LINUX           Mon May 17 03:38:58 2021
*
*
*
*  PROGRAM  advgen
*
*  Name           : advgen - Quantus - (64-bit)
*  Version        : 20.1.2-p025
*  Build Date     : Thu Sep 3 13:54:09 PDT 2020
*
*  HSPICE LIBRARY
*
*!LENGTH_UNITS METERS
*
*
*

*
.SUBCKT LFSR_8_0 vdd! gnd! CLK Set 8_B0
*
*
*  caps2d version: 10
*
*
*       TRANSISTOR CARDS
*
*
MI206/avD1_1	I206/avC7#7	8_B0#45	gnd!#11	gnd!#1
+ nmos1v#20ivpcell#20gpdk090	L=1e-07	W=2.4e-07
+ AD=3.84e-14	AS=6.72e-14	PD=5.6e-07	PS=1.04e-06	simW=2.4e-07 fw=2.4e-07
MI206/avD1_2	avC18#20	avC19	I206/avC7#7	gnd!#1
+ nmos1v#20ivpcell#20gpdk090	L=1e-07	W=2.4e-07
+ AD=6.72e-14	AS=3.84e-14	PD=1.04e-06	PS=5.6e-07	simW=2.4e-07 fw=2.4e-07
MI206/avD1_3	I206/avC6#8	avC19#3	gnd!#14	gnd!#1
+ nmos1v#20ivpcell#20gpdk090	L=1e-07	W=4.8e-07
+ AD=1.344e-13	AS=1.344e-13	PD=1.52e-06	PS=1.52e-06	simW=4.8e-07 fw=4.8e-07
MI206/avD1_4	I206/avC8	I206/avC6#3	avC18#12	gnd!#1
+ nmos1v#20ivpcell#20gpdk090	L=1e-07	W=3.6e-07
+ AD=2.16e-14	AS=1.008e-13	PD=4.8e-07	PS=1.28e-06	simW=3.6e-07 fw=3.6e-07
MI206/avD1_5	gnd!#17	I206/avC7	I206/avC8	gnd!#1
+ nmos1v#20ivpcell#20gpdk090	L=1e-07	W=3.6e-07
+ AD=1.008e-13	AS=2.16e-14	PD=1.28e-06	PS=4.8e-07	simW=3.6e-07 fw=3.6e-07
MI204/avD1_1	I204/avC7#6	8_B0#23	gnd!#115	gnd!#1
+ nmos1v#20ivpcell#20gpdk090	L=1e-07	W=2.4e-07
+ AD=3.84e-14	AS=6.72e-14	PD=5.6e-07	PS=1.04e-06	simW=2.4e-07 fw=2.4e-07
MI204/avD1_2	avC15	avC10#17	I204/avC7#6	gnd!#1
+ nmos1v#20ivpcell#20gpdk090	L=1e-07	W=2.4e-07
+ AD=6.72e-14	AS=3.84e-14	PD=1.04e-06	PS=5.6e-07	simW=2.4e-07 fw=2.4e-07
MI204/avD1_3	I204/avC6	avC10#14	gnd!#112	gnd!#1
+ nmos1v#20ivpcell#20gpdk090	L=1e-07	W=4.8e-07
+ AD=1.344e-13	AS=1.344e-13	PD=1.52e-06	PS=1.52e-06	simW=4.8e-07 fw=4.8e-07
MI204/avD1_4	I204/avC8	I204/avC6#9	avC15#10	gnd!#1
+ nmos1v#20ivpcell#20gpdk090	L=1e-07	W=3.6e-07
+ AD=2.16e-14	AS=1.008e-13	PD=4.8e-07	PS=1.28e-06	simW=3.6e-07 fw=3.6e-07
MI204/avD1_5	gnd!#109	I204/avC7#18	I204/avC8	gnd!#1
+ nmos1v#20ivpcell#20gpdk090	L=1e-07	W=3.6e-07
+ AD=1.008e-13	AS=2.16e-14	PD=1.28e-06	PS=4.8e-07	simW=3.6e-07 fw=3.6e-07
MI205/avD1_1	I205/avC7#6	8_B0#33	gnd!#41	gnd!#1
+ nmos1v#20ivpcell#20gpdk090	L=1e-07	W=2.4e-07
+ AD=3.84e-14	AS=6.72e-14	PD=5.6e-07	PS=1.04e-06	simW=2.4e-07 fw=2.4e-07
MI205/avD1_2	avC17	avC16#18	I205/avC7#6	gnd!#1
+ nmos1v#20ivpcell#20gpdk090	L=1e-07	W=2.4e-07
+ AD=6.72e-14	AS=3.84e-14	PD=1.04e-06	PS=5.6e-07	simW=2.4e-07 fw=2.4e-07
MI205/avD1_3	I205/avC6	avC16#16	gnd!#38	gnd!#1
+ nmos1v#20ivpcell#20gpdk090	L=1e-07	W=4.8e-07
+ AD=1.344e-13	AS=1.344e-13	PD=1.52e-06	PS=1.52e-06	simW=4.8e-07 fw=4.8e-07
MI205/avD1_4	I205/avC8	I205/avC6#10	avC17#9	gnd!#1
+ nmos1v#20ivpcell#20gpdk090	L=1e-07	W=3.6e-07
+ AD=2.16e-14	AS=1.008e-13	PD=4.8e-07	PS=1.28e-06	simW=3.6e-07 fw=3.6e-07
MI205/avD1_5	gnd!#35	I205/avC7#18	I205/avC8	gnd!#1
+ nmos1v#20ivpcell#20gpdk090	L=1e-07	W=3.6e-07
+ AD=1.008e-13	AS=2.16e-14	PD=1.28e-06	PS=4.8e-07	simW=3.6e-07 fw=3.6e-07
MI7/avD1_1	8_B0#6	avC9#10	gnd!#139	gnd!#1
+ nmos1v#20ivpcell#20gpdk090	L=1e-07	W=3e-07
+ AD=8.4e-14	AS=8.4e-14	PD=1.16e-06	PS=1.16e-06	simW=3e-07 fw=3e-07
MI4/avD1_1	avC9#7	avC11#14	gnd!#143	gnd!#1
+ nmos1v#20ivpcell#20gpdk090	L=1e-07	W=1.2e-07
+ AD=6.96e-14	AS=6.96e-14	PD=1.16e-06	PS=1.16e-06	simW=1.2e-07 fw=1.2e-07
MI200/I1/avD1_1	avC14#9	avC6#64	vdd!#52	gnd!#1
+ nmos1v#20ivpcell#20gpdk090	L=1e-07	W=3e-07
+ AD=4.8e-14	AS=8.4e-14	PD=6.2e-07	PS=1.16e-06	simW=3e-07 fw=3e-07
MI200/I1/avD1_2	I200/avC10#2	Set#66	avC14#9	gnd!#1
+ nmos1v#20ivpcell#20gpdk090	L=1e-07	W=3e-07
+ AD=8.4e-14	AS=4.8e-14	PD=1.16e-06	PS=6.2e-07	simW=3e-07 fw=3e-07
MI200/I0/avD1_1	I200/I0/avC10	avC18#4	gnd!#20	gnd!#1
+ nmos1v#20ivpcell#20gpdk090	L=1e-07	W=2.4e-07
+ AD=1.44e-14	AS=6.72e-14	PD=3.6e-07	PS=1.04e-06	simW=2.4e-07 fw=2.4e-07
MI200/I0/avD1_2	I200/I0/avC7#10	avC7#138	I200/I0/avC10	gnd!#1
+ nmos1v#20ivpcell#20gpdk090	L=1e-07	W=2.4e-07
+ AD=6.72e-14	AS=1.44e-14	PD=1.04e-06	PS=3.6e-07	simW=2.4e-07 fw=2.4e-07
MI198/I1/avD1_1	avC16#4	avC6#46	vdd!#43	gnd!#1
+ nmos1v#20ivpcell#20gpdk090	L=1e-07	W=3e-07
+ AD=4.8e-14	AS=8.4e-14	PD=6.2e-07	PS=1.16e-06	simW=3e-07 fw=3e-07
MI198/I1/avD1_2	I198/avC10#16	Set#60	avC16#4	gnd!#1
+ nmos1v#20ivpcell#20gpdk090	L=1e-07	W=3e-07
+ AD=8.4e-14	AS=4.8e-14	PD=1.16e-06	PS=6.2e-07	simW=3e-07 fw=3e-07
MI198/I0/avD1_1	I198/I0/avC10	avC15#13	gnd!#105	gnd!#1
+ nmos1v#20ivpcell#20gpdk090	L=1e-07	W=2.4e-07
+ AD=1.44e-14	AS=6.72e-14	PD=3.6e-07	PS=1.04e-06	simW=2.4e-07 fw=2.4e-07
MI198/I0/avD1_2	I198/I0/avC7#8	avC7#81	I198/I0/avC10	gnd!#1
+ nmos1v#20ivpcell#20gpdk090	L=1e-07	W=2.4e-07
+ AD=6.72e-14	AS=1.44e-14	PD=1.04e-06	PS=3.6e-07	simW=2.4e-07 fw=2.4e-07
MI201/I1/avD1_1	avC12#5	avC6#27	vdd!#28	gnd!#1
+ nmos1v#20ivpcell#20gpdk090	L=1e-07	W=3e-07
+ AD=4.8e-14	AS=8.4e-14	PD=6.2e-07	PS=1.16e-06	simW=3e-07 fw=3e-07
MI201/I1/avD1_2	I201/avC10#2	Set#23	avC12#5	gnd!#1
+ nmos1v#20ivpcell#20gpdk090	L=1e-07	W=3e-07
+ AD=8.4e-14	AS=4.8e-14	PD=1.16e-06	PS=6.2e-07	simW=3e-07 fw=3e-07
MI201/I0/avD1_1	I201/I0/avC10	avC14#4	gnd!#119	gnd!#1
+ nmos1v#20ivpcell#20gpdk090	L=1e-07	W=2.4e-07
+ AD=1.44e-14	AS=6.72e-14	PD=3.6e-07	PS=1.04e-06	simW=2.4e-07 fw=2.4e-07
MI201/I0/avD1_2	I201/I0/avC7#10	avC7#62	I201/I0/avC10	gnd!#1
+ nmos1v#20ivpcell#20gpdk090	L=1e-07	W=2.4e-07
+ AD=6.72e-14	AS=1.44e-14	PD=1.04e-06	PS=3.6e-07	simW=2.4e-07 fw=2.4e-07
MI202/I1/avD1_1	avC8#5	avC6#16	vdd!#14	gnd!#1
+ nmos1v#20ivpcell#20gpdk090	L=1e-07	W=3e-07
+ AD=4.8e-14	AS=8.4e-14	PD=6.2e-07	PS=1.16e-06	simW=3e-07 fw=3e-07
MI202/I1/avD1_2	I202/avC10#2	Set#13	avC8#5	gnd!#1
+ nmos1v#20ivpcell#20gpdk090	L=1e-07	W=3e-07
+ AD=8.4e-14	AS=4.8e-14	PD=1.16e-06	PS=6.2e-07	simW=3e-07 fw=3e-07
MI202/I0/avD1_1	I202/I0/avC10	avC12#4	gnd!#129	gnd!#1
+ nmos1v#20ivpcell#20gpdk090	L=1e-07	W=2.4e-07
+ AD=1.44e-14	AS=6.72e-14	PD=3.6e-07	PS=1.04e-06	simW=2.4e-07 fw=2.4e-07
MI202/I0/avD1_2	I202/I0/avC7#10	avC7#32	I202/I0/avC10	gnd!#1
+ nmos1v#20ivpcell#20gpdk090	L=1e-07	W=2.4e-07
+ AD=6.72e-14	AS=1.44e-14	PD=1.04e-06	PS=3.6e-07	simW=2.4e-07 fw=2.4e-07
MI199/I1/avD1_1	avC19#14	avC6#77	vdd!#57	gnd!#1
+ nmos1v#20ivpcell#20gpdk090	L=1e-07	W=3e-07
+ AD=4.8e-14	AS=8.4e-14	PD=6.2e-07	PS=1.16e-06	simW=3e-07 fw=3e-07
MI199/I1/avD1_2	I199/avC10#16	Set#71	avC19#14	gnd!#1
+ nmos1v#20ivpcell#20gpdk090	L=1e-07	W=3e-07
+ AD=8.4e-14	AS=4.8e-14	PD=1.16e-06	PS=6.2e-07	simW=3e-07 fw=3e-07
MI199/I0/avD1_1	I199/I0/avC10	avC17#17	gnd!#32	gnd!#1
+ nmos1v#20ivpcell#20gpdk090	L=1e-07	W=2.4e-07
+ AD=1.44e-14	AS=6.72e-14	PD=3.6e-07	PS=1.04e-06	simW=2.4e-07 fw=2.4e-07
MI199/I0/avD1_2	I199/I0/avC7#6	avC7#153	I199/I0/avC10	gnd!#1
+ nmos1v#20ivpcell#20gpdk090	L=1e-07	W=2.4e-07
+ AD=6.72e-14	AS=1.44e-14	PD=1.04e-06	PS=3.6e-07	simW=2.4e-07 fw=2.4e-07
MI197/I1/avD1_1	avC10#9	avC6#39	vdd!#33	gnd!#1
+ nmos1v#20ivpcell#20gpdk090	L=1e-07	W=3e-07
+ AD=4.8e-14	AS=8.4e-14	PD=6.2e-07	PS=1.16e-06	simW=3e-07 fw=3e-07
MI197/I1/avD1_2	I197/avC10#16	Set#38	avC10#9	gnd!#1
+ nmos1v#20ivpcell#20gpdk090	L=1e-07	W=3e-07
+ AD=8.4e-14	AS=4.8e-14	PD=1.16e-06	PS=6.2e-07	simW=3e-07 fw=3e-07
MI197/I0/avD1_1	I197/I0/avC10	avC13#13	gnd!#74	gnd!#1
+ nmos1v#20ivpcell#20gpdk090	L=1e-07	W=2.4e-07
+ AD=1.44e-14	AS=6.72e-14	PD=3.6e-07	PS=1.04e-06	simW=2.4e-07 fw=2.4e-07
MI197/I0/avD1_2	I197/I0/avC7#6	avC7#56	I197/I0/avC10	gnd!#1
+ nmos1v#20ivpcell#20gpdk090	L=1e-07	W=2.4e-07
+ AD=6.72e-14	AS=1.44e-14	PD=1.04e-06	PS=3.6e-07	simW=2.4e-07 fw=2.4e-07
MI196/I1/avD1_1	avC13#6	avC6#20	vdd!#20	gnd!#1
+ nmos1v#20ivpcell#20gpdk090	L=1e-07	W=3e-07
+ AD=4.8e-14	AS=8.4e-14	PD=6.2e-07	PS=1.16e-06	simW=3e-07 fw=3e-07
MI196/I1/avD1_2	I196/avC10#16	Set#28	avC13#6	gnd!#1
+ nmos1v#20ivpcell#20gpdk090	L=1e-07	W=3e-07
+ AD=8.4e-14	AS=4.8e-14	PD=1.16e-06	PS=6.2e-07	simW=3e-07 fw=3e-07
MI196/I0/avD1_1	I196/I0/avC10	8_B0#16	gnd!#83	gnd!#1
+ nmos1v#20ivpcell#20gpdk090	L=1e-07	W=2.4e-07
+ AD=1.44e-14	AS=6.72e-14	PD=3.6e-07	PS=1.04e-06	simW=2.4e-07 fw=2.4e-07
MI196/I0/avD1_2	I196/I0/avC7#6	avC7#26	I196/I0/avC10	gnd!#1
+ nmos1v#20ivpcell#20gpdk090	L=1e-07	W=2.4e-07
+ AD=6.72e-14	AS=1.44e-14	PD=1.04e-06	PS=3.6e-07	simW=2.4e-07 fw=2.4e-07
MI203/I1/avD1_1	avC11#5	avC6#5	vdd!#4	gnd!#1
+ nmos1v#20ivpcell#20gpdk090	L=1e-07	W=3e-07
+ AD=4.8e-14	AS=8.4e-14	PD=6.2e-07	PS=1.16e-06	simW=3e-07 fw=3e-07
MI203/I1/avD1_2	I203/avC10	Set#7	avC11#5	gnd!#1
+ nmos1v#20ivpcell#20gpdk090	L=1e-07	W=3e-07
+ AD=8.4e-14	AS=4.8e-14	PD=1.16e-06	PS=6.2e-07	simW=3e-07 fw=3e-07
MI203/I0/avD1_1	I203/I0/avC10	avC8#3	gnd!#86	gnd!#1
+ nmos1v#20ivpcell#20gpdk090	L=1e-07	W=2.4e-07
+ AD=1.44e-14	AS=6.72e-14	PD=3.6e-07	PS=1.04e-06	simW=2.4e-07 fw=2.4e-07
MI203/I0/avD1_2	I203/I0/avC7#10	avC7#11	I203/I0/avC10	gnd!#1
+ nmos1v#20ivpcell#20gpdk090	L=1e-07	W=2.4e-07
+ AD=6.72e-14	AS=1.44e-14	PD=1.04e-06	PS=3.6e-07	simW=2.4e-07 fw=2.4e-07
MI196/I0/avD1_5	I196/avC10#6	CLK#41	I196/I0/avC8	gnd!#1
+ nmos1v#20ivpcell#20gpdk090	L=1e-07	W=4.2e-07
+ AD=6.72e-14	AS=1.176e-13	PD=7.4e-07	PS=1.4e-06	M=2	simW=4.2e-07 fw=4.2e-07
MI199/I0/avD1_3	I199/I0/avC8#5	I199/I0/avC7	gnd!#4	gnd!#1
+ nmos1v#20ivpcell#20gpdk090	L=1e-07	W=4.2e-07
+ AD=6.72e-14	AS=1.176e-13	PD=7.4e-07	PS=1.4e-06	M=2	simW=4.2e-07 fw=4.2e-07
MI202/I0/avD1_3	I202/I0/avC8#5	I202/I0/avC7	gnd!#2	gnd!#1
+ nmos1v#20ivpcell#20gpdk090	L=1e-07	W=4.2e-07
+ AD=6.72e-14	AS=1.176e-13	PD=7.4e-07	PS=1.4e-06	M=2	simW=4.2e-07 fw=4.2e-07
MI203/I0/avD1_3	I203/I0/avC8#5	I203/I0/avC7	gnd!	gnd!#1
+ nmos1v#20ivpcell#20gpdk090	L=1e-07	W=4.2e-07
+ AD=6.72e-14	AS=1.176e-13	PD=7.4e-07	PS=1.4e-06	M=2	simW=4.2e-07 fw=4.2e-07
MI200/I0/avD1_3	I200/I0/avC8#5	I200/I0/avC7	gnd!#2	gnd!#1
+ nmos1v#20ivpcell#20gpdk090	L=1e-07	W=4.2e-07
+ AD=6.72e-14	AS=1.176e-13	PD=7.4e-07	PS=1.4e-06	M=2	simW=4.2e-07 fw=4.2e-07
MI200/I0/avD1_5	I200/avC10#12	CLK#130	I200/I0/avC8	gnd!#1
+ nmos1v#20ivpcell#20gpdk090	L=1e-07	W=4.2e-07
+ AD=6.72e-14	AS=1.176e-13	PD=7.4e-07	PS=1.4e-06	M=2	simW=4.2e-07 fw=4.2e-07
MI294/avD1_1	avC7#85	CLK#86	gnd!#6	gnd!#1
+ nmos1v#20ivpcell#20gpdk090	L=1e-07	W=4e-07
+ AD=6.4e-14	AS=7.36e-14	PD=7.2e-07	PS=8.48e-07	M=10	simW=4e-07 fw=4e-07
MI201/I0/avD1_3	I201/I0/avC8#5	I201/I0/avC7	gnd!#2	gnd!#1
+ nmos1v#20ivpcell#20gpdk090	L=1e-07	W=4.2e-07
+ AD=6.72e-14	AS=1.176e-13	PD=7.4e-07	PS=1.4e-06	M=2	simW=4.2e-07 fw=4.2e-07
MI201/I0/avD1_5	I201/avC10#12	CLK#49	I201/I0/avC8	gnd!#1
+ nmos1v#20ivpcell#20gpdk090	L=1e-07	W=4.2e-07
+ AD=6.72e-14	AS=1.176e-13	PD=7.4e-07	PS=1.4e-06	M=2	simW=4.2e-07 fw=4.2e-07
MI196/I0/avD1_3	I196/I0/avC8#5	I196/I0/avC7	gnd!#7	gnd!#1
+ nmos1v#20ivpcell#20gpdk090	L=1e-07	W=4.2e-07
+ AD=6.72e-14	AS=1.176e-13	PD=7.4e-07	PS=1.4e-06	M=2	simW=4.2e-07 fw=4.2e-07
MI203/I0/avD1_5	I203/avC10#16	CLK#4	I203/I0/avC8	gnd!#1
+ nmos1v#20ivpcell#20gpdk090	L=1e-07	W=4.2e-07
+ AD=6.72e-14	AS=1.176e-13	PD=7.4e-07	PS=1.4e-06	M=2	simW=4.2e-07 fw=4.2e-07
MI202/I0/avD1_5	I202/avC10#12	CLK#19	I202/I0/avC8	gnd!#1
+ nmos1v#20ivpcell#20gpdk090	L=1e-07	W=4.2e-07
+ AD=6.72e-14	AS=1.176e-13	PD=7.4e-07	PS=1.4e-06	M=2	simW=4.2e-07 fw=4.2e-07
MI2/avD1_1	avC6#52	Set#49	gnd!#6	gnd!#1
+ nmos1v#20ivpcell#20gpdk090	L=1e-07	W=2.4e-07
+ AD=3.84e-14	AS=6.72e-14	PD=5.6e-07	PS=1.04e-06	M=2	simW=2.4e-07 fw=2.4e-07
MI197/I0/avD1_5	I197/avC10#6	CLK#69	I197/I0/avC8	gnd!#1
+ nmos1v#20ivpcell#20gpdk090	L=1e-07	W=4.2e-07
+ AD=6.72e-14	AS=1.176e-13	PD=7.4e-07	PS=1.4e-06	M=2	simW=4.2e-07 fw=4.2e-07
MI198/I0/avD1_5	I198/avC10	CLK#124	I198/I0/avC8	gnd!#1
+ nmos1v#20ivpcell#20gpdk090	L=1e-07	W=4.2e-07
+ AD=6.72e-14	AS=1.176e-13	PD=7.4e-07	PS=1.4e-06	M=2	simW=4.2e-07 fw=4.2e-07
MI198/I0/avD1_3	I198/I0/avC8#5	I198/I0/avC7	gnd!#2	gnd!#1
+ nmos1v#20ivpcell#20gpdk090	L=1e-07	W=4.2e-07
+ AD=6.72e-14	AS=1.176e-13	PD=7.4e-07	PS=1.4e-06	M=2	simW=4.2e-07 fw=4.2e-07
MI199/I0/avD1_5	I199/avC10#6	CLK#150	I199/I0/avC8	gnd!#1
+ nmos1v#20ivpcell#20gpdk090	L=1e-07	W=4.2e-07
+ AD=6.72e-14	AS=1.176e-13	PD=7.4e-07	PS=1.4e-06	M=2	simW=4.2e-07 fw=4.2e-07
MI197/I0/avD1_3	I197/I0/avC8#5	I197/I0/avC7	gnd!#7	gnd!#1
+ nmos1v#20ivpcell#20gpdk090	L=1e-07	W=4.2e-07
+ AD=6.72e-14	AS=1.176e-13	PD=7.4e-07	PS=1.4e-06	M=2	simW=4.2e-07 fw=4.2e-07
MI206/avD7_1	I206/avC7#15	8_B0#43	vdd!#65	vdd!#80
+ pmos1v#20ivpcell#20gpdk090	L=1e-07	W=2.4e-07
+ AD=6.72e-14	AS=6.72e-14	PD=1.04e-06	PS=1.04e-06	simW=2.4e-07 fw=2.4e-07
MI206/avD7_2	I206/avC6#4	avC19#4	vdd!#74	vdd!#80
+ pmos1v#20ivpcell#20gpdk090	L=1e-07	W=9e-07
+ AD=1.44e-13	AS=2.52e-13	PD=1.22e-06	PS=2.36e-06	simW=9e-07 fw=9e-07
MI206/avD7_3	avC18#15	I206/avC7#14	I206/avC6#4	vdd!#80
+ pmos1v#20ivpcell#20gpdk090	L=1e-07	W=9e-07
+ AD=2.52e-13	AS=1.44e-13	PD=2.36e-06	PS=1.22e-06	simW=9e-07 fw=9e-07
MI206/avD7_4	avC18#5	I206/avC6#2	I206/avC7#3	vdd!#80
+ pmos1v#20ivpcell#20gpdk090	L=1e-07	W=2.4e-07
+ AD=6.72e-14	AS=6.72e-14	PD=1.04e-06	PS=1.04e-06	simW=2.4e-07 fw=2.4e-07
MI204/avD7_1	I204/avC7#3	8_B0#25	vdd!#150	vdd!#80
+ pmos1v#20ivpcell#20gpdk090	L=1e-07	W=2.4e-07
+ AD=6.72e-14	AS=6.72e-14	PD=1.04e-06	PS=1.04e-06	simW=2.4e-07 fw=2.4e-07
MI204/avD7_2	I204/avC6#5	avC10#16	vdd!#147	vdd!#80
+ pmos1v#20ivpcell#20gpdk090	L=1e-07	W=9e-07
+ AD=1.44e-13	AS=2.52e-13	PD=1.22e-06	PS=2.36e-06	simW=9e-07 fw=9e-07
MI204/avD7_3	avC15#4	I204/avC7#13	I204/avC6#5	vdd!#80
+ pmos1v#20ivpcell#20gpdk090	L=1e-07	W=9e-07
+ AD=2.52e-13	AS=1.44e-13	PD=2.36e-06	PS=1.22e-06	simW=9e-07 fw=9e-07
MI204/avD7_4	avC15#18	I204/avC6#10	I204/avC7#14	vdd!#80
+ pmos1v#20ivpcell#20gpdk090	L=1e-07	W=2.4e-07
+ AD=6.72e-14	AS=6.72e-14	PD=1.04e-06	PS=1.04e-06	simW=2.4e-07 fw=2.4e-07
MI205/avD7_1	I205/avC7#3	8_B0#35	vdd!#98	vdd!#80
+ pmos1v#20ivpcell#20gpdk090	L=1e-07	W=2.4e-07
+ AD=6.72e-14	AS=6.72e-14	PD=1.04e-06	PS=1.04e-06	simW=2.4e-07 fw=2.4e-07
MI205/avD7_2	I205/avC6#5	avC16#19	vdd!#89	vdd!#80
+ pmos1v#20ivpcell#20gpdk090	L=1e-07	W=9e-07
+ AD=1.44e-13	AS=2.52e-13	PD=1.22e-06	PS=2.36e-06	simW=9e-07 fw=9e-07
MI205/avD7_3	avC17#6	I205/avC7#13	I205/avC6#5	vdd!#80
+ pmos1v#20ivpcell#20gpdk090	L=1e-07	W=9e-07
+ AD=2.52e-13	AS=1.44e-13	PD=2.36e-06	PS=1.22e-06	simW=9e-07 fw=9e-07
MI205/avD7_4	avC17#20	I205/avC6#9	I205/avC7#14	vdd!#80
+ pmos1v#20ivpcell#20gpdk090	L=1e-07	W=2.4e-07
+ AD=6.72e-14	AS=6.72e-14	PD=1.04e-06	PS=1.04e-06	simW=2.4e-07 fw=2.4e-07
MI7/avD7_1	8_B0#1	avC9	vdd!#212	vdd!#80
+ pmos1v#20ivpcell#20gpdk090	L=1e-07	W=6e-07
+ AD=1.68e-13	AS=1.68e-13	PD=1.76e-06	PS=1.76e-06	simW=6e-07 fw=6e-07
MI4/avD7_1	avC9#4	avC11#16	vdd!#215	vdd!#80
+ pmos1v#20ivpcell#20gpdk090	L=1e-07	W=2.4e-07
+ AD=6.72e-14	AS=6.72e-14	PD=1.04e-06	PS=1.04e-06	simW=2.4e-07 fw=2.4e-07
MI200/I1/avD7_1	avC14#13	avC6#63	I200/avC10#9	vdd!#80
+ pmos1v#20ivpcell#20gpdk090	L=1e-07	W=6e-07
+ AD=9.6e-14	AS=1.68e-13	PD=9.2e-07	PS=1.76e-06	simW=6e-07 fw=6e-07
MI200/I1/avD7_2	vdd!#102	Set#68	avC14#13	vdd!#80
+ pmos1v#20ivpcell#20gpdk090	L=1e-07	W=6e-07
+ AD=1.68e-13	AS=9.6e-14	PD=1.76e-06	PS=9.2e-07	simW=6e-07 fw=6e-07
MI200/I0/avD7_1	I200/I0/avC11	avC18#3	vdd!#86	vdd!#80
+ pmos1v#20ivpcell#20gpdk090	L=1e-07	W=4.8e-07
+ AD=2.88e-14	AS=1.344e-13	PD=6e-07	PS=1.52e-06	simW=4.8e-07 fw=4.8e-07
MI200/I0/avD7_2	I200/I0/avC7#6	CLK#133	I200/I0/avC11	vdd!#80
+ pmos1v#20ivpcell#20gpdk090	L=1e-07	W=4.8e-07
+ AD=1.344e-13	AS=2.88e-14	PD=1.52e-06	PS=6e-07	simW=4.8e-07 fw=4.8e-07
MI198/I1/avD7_1	avC16#8	avC6#48	I198/avC10#11	vdd!#80
+ pmos1v#20ivpcell#20gpdk090	L=1e-07	W=6e-07
+ AD=9.6e-14	AS=1.68e-13	PD=9.2e-07	PS=1.76e-06	simW=6e-07 fw=6e-07
MI198/I1/avD7_2	vdd!#108	Set#59	avC16#8	vdd!#80
+ pmos1v#20ivpcell#20gpdk090	L=1e-07	W=6e-07
+ AD=1.68e-13	AS=9.6e-14	PD=1.76e-06	PS=9.2e-07	simW=6e-07 fw=6e-07
MI198/I0/avD7_1	I198/I0/avC11	avC15#16	vdd!#135	vdd!#80
+ pmos1v#20ivpcell#20gpdk090	L=1e-07	W=4.8e-07
+ AD=2.88e-14	AS=1.344e-13	PD=6e-07	PS=1.52e-06	simW=4.8e-07 fw=4.8e-07
MI198/I0/avD7_2	I198/I0/avC7#11	CLK#85	I198/I0/avC11	vdd!#80
+ pmos1v#20ivpcell#20gpdk090	L=1e-07	W=4.8e-07
+ AD=1.344e-13	AS=2.88e-14	PD=1.52e-06	PS=6e-07	simW=4.8e-07 fw=4.8e-07
MI201/I1/avD7_1	avC12#11	avC6#26	I201/avC10#9	vdd!#80
+ pmos1v#20ivpcell#20gpdk090	L=1e-07	W=6e-07
+ AD=9.6e-14	AS=1.68e-13	PD=9.2e-07	PS=1.76e-06	simW=6e-07 fw=6e-07
MI201/I1/avD7_2	vdd!#177	Set#25	avC12#11	vdd!#80
+ pmos1v#20ivpcell#20gpdk090	L=1e-07	W=6e-07
+ AD=1.68e-13	AS=9.6e-14	PD=1.76e-06	PS=9.2e-07	simW=6e-07 fw=6e-07
MI201/I0/avD7_1	I201/I0/avC11	avC14#3	vdd!#154	vdd!#80
+ pmos1v#20ivpcell#20gpdk090	L=1e-07	W=4.8e-07
+ AD=2.88e-14	AS=1.344e-13	PD=6e-07	PS=1.52e-06	simW=4.8e-07 fw=4.8e-07
MI201/I0/avD7_2	I201/I0/avC7#6	CLK#60	I201/I0/avC11	vdd!#80
+ pmos1v#20ivpcell#20gpdk090	L=1e-07	W=4.8e-07
+ AD=1.344e-13	AS=2.88e-14	PD=1.52e-06	PS=6e-07	simW=4.8e-07 fw=4.8e-07
MI202/I1/avD7_1	avC8#9	avC6#15	I202/avC10#9	vdd!#80
+ pmos1v#20ivpcell#20gpdk090	L=1e-07	W=6e-07
+ AD=9.6e-14	AS=1.68e-13	PD=9.2e-07	PS=1.76e-06	simW=6e-07 fw=6e-07
MI202/I1/avD7_2	vdd!#204	Set#15	avC8#9	vdd!#80
+ pmos1v#20ivpcell#20gpdk090	L=1e-07	W=6e-07
+ AD=1.68e-13	AS=9.6e-14	PD=1.76e-06	PS=9.2e-07	simW=6e-07 fw=6e-07
MI202/I0/avD7_1	I202/I0/avC11	avC12#3	vdd!#180	vdd!#80
+ pmos1v#20ivpcell#20gpdk090	L=1e-07	W=4.8e-07
+ AD=2.88e-14	AS=1.344e-13	PD=6e-07	PS=1.52e-06	simW=4.8e-07 fw=4.8e-07
MI202/I0/avD7_2	I202/I0/avC7#6	CLK#30	I202/I0/avC11	vdd!#80
+ pmos1v#20ivpcell#20gpdk090	L=1e-07	W=4.8e-07
+ AD=1.344e-13	AS=2.88e-14	PD=1.52e-06	PS=6e-07	simW=4.8e-07 fw=4.8e-07
MI199/I1/avD7_1	avC19#10	avC6#75	I199/avC10#11	vdd!#80
+ pmos1v#20ivpcell#20gpdk090	L=1e-07	W=6e-07
+ AD=9.6e-14	AS=1.68e-13	PD=9.2e-07	PS=1.76e-06	simW=6e-07 fw=6e-07
MI199/I1/avD7_2	vdd!#69	Set#72	avC19#10	vdd!#80
+ pmos1v#20ivpcell#20gpdk090	L=1e-07	W=6e-07
+ AD=1.68e-13	AS=9.6e-14	PD=1.76e-06	PS=9.2e-07	simW=6e-07 fw=6e-07
MI199/I0/avD7_1	I199/I0/avC11	avC17#14	vdd!#82	vdd!#80
+ pmos1v#20ivpcell#20gpdk090	L=1e-07	W=4.8e-07
+ AD=2.88e-14	AS=1.344e-13	PD=6e-07	PS=1.52e-06	simW=4.8e-07 fw=4.8e-07
MI199/I0/avD7_2	I199/I0/avC7#4	CLK#147	I199/I0/avC11	vdd!#80
+ pmos1v#20ivpcell#20gpdk090	L=1e-07	W=4.8e-07
+ AD=1.344e-13	AS=2.88e-14	PD=1.52e-06	PS=6e-07	simW=4.8e-07 fw=4.8e-07
MI197/I1/avD7_1	avC10#5	avC6#36	I197/avC10#11	vdd!#80
+ pmos1v#20ivpcell#20gpdk090	L=1e-07	W=6e-07
+ AD=9.6e-14	AS=1.68e-13	PD=9.2e-07	PS=1.76e-06	simW=6e-07 fw=6e-07
MI197/I1/avD7_2	vdd!#142	Set#39	avC10#5	vdd!#80
+ pmos1v#20ivpcell#20gpdk090	L=1e-07	W=6e-07
+ AD=1.68e-13	AS=9.6e-14	PD=1.76e-06	PS=9.2e-07	simW=6e-07 fw=6e-07
MI197/I0/avD7_1	I197/I0/avC11	avC13#11	vdd!#164	vdd!#80
+ pmos1v#20ivpcell#20gpdk090	L=1e-07	W=4.8e-07
+ AD=2.88e-14	AS=1.344e-13	PD=6e-07	PS=1.52e-06	simW=4.8e-07 fw=4.8e-07
MI197/I0/avD7_2	I197/I0/avC7#4	CLK#58	I197/I0/avC11	vdd!#80
+ pmos1v#20ivpcell#20gpdk090	L=1e-07	W=4.8e-07
+ AD=1.344e-13	AS=2.88e-14	PD=1.52e-06	PS=6e-07	simW=4.8e-07 fw=4.8e-07
MI196/I1/avD7_1	avC13	avC6#17	I196/avC10#11	vdd!#80
+ pmos1v#20ivpcell#20gpdk090	L=1e-07	W=6e-07
+ AD=9.6e-14	AS=1.68e-13	PD=9.2e-07	PS=1.76e-06	simW=6e-07 fw=6e-07
MI196/I1/avD7_2	vdd!#171	Set#29	avC13	vdd!#80
+ pmos1v#20ivpcell#20gpdk090	L=1e-07	W=6e-07
+ AD=1.68e-13	AS=9.6e-14	PD=1.76e-06	PS=9.2e-07	simW=6e-07 fw=6e-07
MI196/I0/avD7_1	I196/I0/avC11	8_B0#14	vdd!#190	vdd!#80
+ pmos1v#20ivpcell#20gpdk090	L=1e-07	W=4.8e-07
+ AD=2.88e-14	AS=1.344e-13	PD=6e-07	PS=1.52e-06	simW=4.8e-07 fw=4.8e-07
MI196/I0/avD7_2	I196/I0/avC7#4	CLK#28	I196/I0/avC11	vdd!#80
+ pmos1v#20ivpcell#20gpdk090	L=1e-07	W=4.8e-07
+ AD=1.344e-13	AS=2.88e-14	PD=1.52e-06	PS=6e-07	simW=4.8e-07 fw=4.8e-07
MI203/I1/avD7_1	avC11	avC6#6	I203/avC10#8	vdd!#80
+ pmos1v#20ivpcell#20gpdk090	L=1e-07	W=6e-07
+ AD=9.6e-14	AS=1.68e-13	PD=9.2e-07	PS=1.76e-06	simW=6e-07 fw=6e-07
MI203/I1/avD7_2	vdd!#210	Set#5	avC11	vdd!#80
+ pmos1v#20ivpcell#20gpdk090	L=1e-07	W=6e-07
+ AD=1.68e-13	AS=9.6e-14	PD=1.76e-06	PS=9.2e-07	simW=6e-07 fw=6e-07
MI203/I0/avD7_1	I203/I0/avC11	avC8#4	vdd!#197	vdd!#80
+ pmos1v#20ivpcell#20gpdk090	L=1e-07	W=4.8e-07
+ AD=2.88e-14	AS=1.344e-13	PD=6e-07	PS=1.52e-06	simW=4.8e-07 fw=4.8e-07
MI203/I0/avD7_2	I203/I0/avC7#6	CLK#13	I203/I0/avC11	vdd!#80
+ pmos1v#20ivpcell#20gpdk090	L=1e-07	W=4.8e-07
+ AD=1.344e-13	AS=2.88e-14	PD=1.52e-06	PS=6e-07	simW=4.8e-07 fw=4.8e-07
MI203/I0/avD7_5	I203/avC10#13	avC7#2	I203/I0/avC9	vdd!#80
+ pmos1v#20ivpcell#20gpdk090	L=1e-07	W=8.4e-07
+ AD=1.344e-13	AS=2.352e-13	PD=1.16e-06	PS=2.24e-06	M=2	simW=8.4e-07 fw=8.4e-07
MI198/I0/avD7_5	I198/avC10#7	avC7#129	I198/I0/avC9#5	vdd!#80
+ pmos1v#20ivpcell#20gpdk090	L=1e-07	W=8.4e-07
+ AD=1.344e-13	AS=2.352e-13	PD=1.16e-06	PS=2.24e-06	M=2	simW=8.4e-07 fw=8.4e-07
MI202/I0/avD7_5	I202/avC10#18	avC7#23	I202/I0/avC9	vdd!#80
+ pmos1v#20ivpcell#20gpdk090	L=1e-07	W=8.4e-07
+ AD=1.344e-13	AS=2.352e-13	PD=1.16e-06	PS=2.24e-06	M=2	simW=8.4e-07 fw=8.4e-07
MI196/I0/avD7_5	I196/avC10#3	avC7#42	I196/I0/avC9#5	vdd!#80
+ pmos1v#20ivpcell#20gpdk090	L=1e-07	W=8.4e-07
+ AD=1.344e-13	AS=2.352e-13	PD=1.16e-06	PS=2.24e-06	M=2	simW=8.4e-07 fw=8.4e-07
MI199/I0/avD7_5	I199/avC10#3	avC7#160	I199/I0/avC9#5	vdd!#80
+ pmos1v#20ivpcell#20gpdk090	L=1e-07	W=8.4e-07
+ AD=1.344e-13	AS=2.352e-13	PD=1.16e-06	PS=2.24e-06	M=2	simW=8.4e-07 fw=8.4e-07
MI201/I0/avD7_5	I201/avC10#18	avC7#53	I201/I0/avC9	vdd!#80
+ pmos1v#20ivpcell#20gpdk090	L=1e-07	W=8.4e-07
+ AD=1.344e-13	AS=2.352e-13	PD=1.16e-06	PS=2.24e-06	M=2	simW=8.4e-07 fw=8.4e-07
MI203/I0/avD7_3	I203/I0/avC9#11	I203/I0/avC7	vdd!	vdd!#80
+ pmos1v#20ivpcell#20gpdk090	L=1e-07	W=8.4e-07
+ AD=1.344e-13	AS=2.352e-13	PD=1.16e-06	PS=2.24e-06	M=2	simW=8.4e-07 fw=8.4e-07
MI202/I0/avD7_3	I202/I0/avC9#12	I202/I0/avC7	vdd!	vdd!#80
+ pmos1v#20ivpcell#20gpdk090	L=1e-07	W=8.4e-07
+ AD=1.344e-13	AS=2.352e-13	PD=1.16e-06	PS=2.24e-06	M=2	simW=8.4e-07 fw=8.4e-07
MI196/I0/avD7_3	I196/I0/avC9#2	I196/I0/avC7	vdd!	vdd!#80
+ pmos1v#20ivpcell#20gpdk090	L=1e-07	W=8.4e-07
+ AD=1.344e-13	AS=2.352e-13	PD=1.16e-06	PS=2.24e-06	M=2	simW=8.4e-07 fw=8.4e-07
MI201/I0/avD7_3	I201/I0/avC9#12	I201/I0/avC7	vdd!	vdd!#80
+ pmos1v#20ivpcell#20gpdk090	L=1e-07	W=8.4e-07
+ AD=1.344e-13	AS=2.352e-13	PD=1.16e-06	PS=2.24e-06	M=2	simW=8.4e-07 fw=8.4e-07
MI197/I0/avD7_3	I197/I0/avC9#2	I197/I0/avC7	vdd!	vdd!#80
+ pmos1v#20ivpcell#20gpdk090	L=1e-07	W=8.4e-07
+ AD=1.344e-13	AS=2.352e-13	PD=1.16e-06	PS=2.24e-06	M=2	simW=8.4e-07 fw=8.4e-07
MI198/I0/avD7_3	I198/I0/avC9#3	I198/I0/avC7	vdd!	vdd!#80
+ pmos1v#20ivpcell#20gpdk090	L=1e-07	W=8.4e-07
+ AD=1.344e-13	AS=2.352e-13	PD=1.16e-06	PS=2.24e-06	M=2	simW=8.4e-07 fw=8.4e-07
MI2/avD7_1	avC6#49	Set#49	vdd!	vdd!#80
+ pmos1v#20ivpcell#20gpdk090	L=1e-07	W=4.8e-07
+ AD=7.68e-14	AS=1.344e-13	PD=8e-07	PS=1.52e-06	M=2	simW=4.8e-07 fw=4.8e-07
MI200/I0/avD7_3	I200/I0/avC9#12	I200/I0/avC7	vdd!	vdd!#80
+ pmos1v#20ivpcell#20gpdk090	L=1e-07	W=8.4e-07
+ AD=1.344e-13	AS=2.352e-13	PD=1.16e-06	PS=2.24e-06	M=2	simW=8.4e-07 fw=8.4e-07
MI199/I0/avD7_3	I199/I0/avC9#2	I199/I0/avC7	vdd!	vdd!#80
+ pmos1v#20ivpcell#20gpdk090	L=1e-07	W=8.4e-07
+ AD=1.344e-13	AS=2.352e-13	PD=1.16e-06	PS=2.24e-06	M=2	simW=8.4e-07 fw=8.4e-07
MI200/I0/avD7_5	I200/avC10#18	avC7#135	I200/I0/avC9	vdd!#80
+ pmos1v#20ivpcell#20gpdk090	L=1e-07	W=8.4e-07
+ AD=1.344e-13	AS=2.352e-13	PD=1.16e-06	PS=2.24e-06	M=2	simW=8.4e-07 fw=8.4e-07
MI197/I0/avD7_5	I197/avC10#3	avC7#72	I197/I0/avC9#5	vdd!#80
+ pmos1v#20ivpcell#20gpdk090	L=1e-07	W=8.4e-07
+ AD=1.344e-13	AS=2.352e-13	PD=1.16e-06	PS=2.24e-06	M=2	simW=8.4e-07 fw=8.4e-07
MI294/avD7_1	avC7#90	CLK#86	vdd!	vdd!#80
+ pmos1v#20ivpcell#20gpdk090	L=1e-07	W=7e-07
+ AD=1.12e-13	AS=1.288e-13	PD=1.02e-06	PS=1.208e-06	M=10	simW=7e-07 fw=7e-07
*
*
*       RESISTOR AND CAP/DIODE CARDS
*
Re1	avC7#14	avC7#15	    2.6405	$mt5
+ $X=-2.54 $Y=2.5075
Re2	avC7#29	avC7#28	    2.6205	$mt5
+ $X=1.405 $Y=2.5075
Re3	avC7#41	avC7#45	    2.0842	$mt5
+ $X=2.15 $Y=4.5375
Re4	avC7#59	avC7#58	    2.6305	$mt5
+ $X=6.695 $Y=2.5075
Re5	avC7#71	avC7#75	    2.1422	$mt5
+ $X=7.1 $Y=4.5375
Re6	avC7#132	avC7#84	    2.1682	$mt5
+ $X=14.31 $Y=4.5375
Re8	avC7#146	avC7#147	    2.1502	$mt5
+ $X=21.515 $Y=4.5375
Re9	avC7#158	avC7#157	    1.2485	$mt5
+ $X=23.505 $Y=2.5075
Re7	avC6#60	avC6#69	    2.6099	$mt5
+ $X=17.65 $Y=2.8025
Rf27	8_B0#37	8_B0#26	    2.8152	$mt4
+ $X=21.5075 $Y=1.925
Rf28	8_B0#26	8_B0#20	    4.0860	$mt4
+ $X=13.44 $Y=1.925
Rf29	8_B0#20	8_B0#17	    3.9144	$mt4
+ $X=4.09 $Y=1.925
Rf30	8_B0#17	8_B0#10	    0.9765	$mt4
+ $X=-1.6325 $Y=1.925
Rf39	8_B0#39	8_B0#36	    0.8385	$mt4
+ $X=25.7975 $Y=4.855
Rf9	avC14#18	avC14#8	    3.5081	$mt4
+ $X=14.72 $Y=4.785
Rf8	avC16#13	avC16#3	    0.5910	$mt4
+ $X=17.7325 $Y=0.825
Rf11	CLK#148	CLK#123	    5.3444	$mt4
+ $X=17.95 $Y=2.675
Rf12	CLK#123	CLK#78	    0.7901	$mt4	$X=12.41 $Y=2.675
Rf13	CLK#78	CLK#68	    1.5101	$mt4	$X=9.71 $Y=2.675
Rf14	CLK#68	CLK#75	    0.8951	$mt4	$X=6.8875 $Y=2.675
Rf15	CLK#75	CLK#38	    1.3365	$mt4	$X=4.2675 $Y=2.675
Rf16	CLK#38	CLK#45	    0.8951	$mt4	$X=1.6475 $Y=2.675
Rf17	CLK#45	CLK#15	    0.9465	$mt4	$X=-0.5175 $Y=2.675
Rf40	Set#76	Set#56	    3.9638	$mt4	$X=22.5025 $Y=2.255
Rf41	Set#56	Set#46	    0.7324	$mt4	$X=17.0075 $Y=2.255
Rf42	Set#46	Set#45	    2.3608	$mt4	$X=13.3825 $Y=2.255
Rf43	Set#45	Set#35	    2.2386	$mt4	$X=8 $Y=2.255
Rf44	Set#35	Set#20	    0.9444	$mt4	$X=4.27 $Y=2.255
Rf45	Set#20	Set#10	    2.2344	$mt4	$X=0.545 $Y=2.255
Rf46	Set#10	Set#3	    1.7651	$mt4	$X=-4.1375 $Y=2.255
Rf1	avC7#13	avC7#14	    0.4667	$mt4
+ $X=-2.085 $Y=1.265
Rf2	avC7#27	avC7#28	    0.9333	$mt4	$X=1 $Y=1.265
Rf3	avC7#40	avC7#41	    0.7000	$mt4
+ $X=2.425 $Y=5.215
Rf4	avC7#57	avC7#58	    0.9333	$mt4
+ $X=6.265 $Y=1.265
Rf5	avC7#70	avC7#71	    0.4667	$mt4
+ $X=7.52 $Y=5.215
Rf6	avC7#83	avC7#84	    0.4667	$mt4
+ $X=13.825 $Y=5.215
Rf10	avC7#145	avC7#146	    0.4667	$mt4
+ $X=21.955 $Y=5.215
Rf18	avC7#156	avC7#157	    0.4667	$mt4
+ $X=23.03 $Y=1.265
Rf19	avC7#158	avC7#147	    2.2458	$mt4
+ $X=22.51 $Y=3.805
Rf20	avC7#128	avC7#147	    2.7722	$mt4
+ $X=18.2725 $Y=3.805
Rf21	avC7#128	avC7#132	    0.3015	$mt4
+ $X=14.67 $Y=3.805
Rf22	avC7#132	avC7#75	    3.0829	$mt4
+ $X=10.705 $Y=3.805
Rf23	avC7#75	avC7#59	    0.1665	$mt4
+ $X=6.8975 $Y=3.805
Rf24	avC7#59	avC7#45	    1.9408	$mt4
+ $X=4.4225 $Y=3.805
Rf25	avC7#45	avC7#29	    0.3122	$mt4
+ $X=1.7775 $Y=3.805
Rf26	avC7#29	avC7#15	    1.6836	$mt4
+ $X=-0.5675 $Y=3.805
Rf7	avC6#59	avC6#60	    1.4000	$mt4
+ $X=17.71 $Y=1.37
Rf31	avC6#68	avC6#69	    0.6397	$mt4
+ $X=18.445 $Y=4.225
Rf32	avC6#43	avC6#69	    0.4511	$mt4
+ $X=17.075 $Y=4.225
Rf33	avC6#43	avC6#35	    3.2131	$mt4
+ $X=12.8125 $Y=4.225
Rf34	avC6#35	avC6#32	    1.8231	$mt4
+ $X=6.88 $Y=4.225
Rf35	avC6#32	avC6#23	    0.1480	$mt4
+ $X=4.5605 $Y=4.22
Rf36	avC6#23	avC6#13	    2.0974	$mt4
+ $X=1.92 $Y=4.225
Rf37	avC6#13	avC6#8	    1.8889	$mt4	$X=-2.745 $Y=4.225
Rf38	avC6#72	avC6#68	    2.6516	$mt4
+ $X=22.2725 $Y=4.225
Rg7	8_B0#9	8_B0#10	    2.5071	$mt3	$X=-2.78 $Y=2.9925
Rg17	8_B0#11	8_B0#17	    1.4000	$mt3
+ $X=-0.485 $Y=1.925
Rg38	8_B0#18	8_B0#20	    2.1636	$mt3
+ $X=8.6675 $Y=2.835
Rg63	8_B0#26	8_B0#27	    2.8703	$mt3
+ $X=18.2225 $Y=1.8255
Rg72	8_B0#36	8_B0#37	    4.0486	$mt3	$X=24.8 $Y=3.39
Rg83	8_B0#38	8_B0#39	    2.8000	$mt3
+ $X=26.795 $Y=4.8
Rg14	avC8#16	avC8#15	    0.9445	$mt3
+ $X=-1.15 $Y=2.54
Rg4	avC11#10	avC11#11	    0.9734	$mt3
+ $X=-5.48 $Y=3.9525
Rg43	avC10#4	avC10#2	    1.1305	$mt3
+ $X=9.5775 $Y=3.585
Rg80	avC19#9	avC19#6	    1.0042	$mt3
+ $X=26.21 $Y=3.985
Rg48	avC14#7	avC14#8	    1.4000	$mt3
+ $X=10.595 $Y=4.785
Rg66	avC14#17	avC14#18	    1.8707	$mt3
+ $X=18.8 $Y=4.195
Rg57	avC16#2	avC16#3	    2.6015	$mt3
+ $X=17.035 $Y=2.24
Rg65	avC16#12	avC16#13	    1.4000	$mt3
+ $X=18.43 $Y=0.825
Rg78	I206/avC7#10	I206/avC7#11	    1.9329	$mt3
+ $X=25.89 $Y=4.87
Rg45	I204/avC7#9	I204/avC7#10	    0.5329	$mt3	$X=9.85 $Y=4.87
Rg68	I205/avC7#10	I205/avC7#9	    0.5329	$mt3
+ $X=19.07 $Y=1.61
Rg2	vdd!#1	vdd!#3	    1.8295	$mt3	$X=-5.9 $Y=1.595
Rg5	vdd!#7	vdd!#8	    0.1520	$mt3	$X=-5.06 $Y=0.9805
Rg12	vdd!#11	vdd!#9	    1.8295	$mt3	$X=-1.57 $Y=4.885
Rg15	vdd!#12	vdd!#13	    2.9520	$mt3
+ $X=-0.73 $Y=5.5005
Rg25	vdd!#19	vdd!#17	    1.8295	$mt3
+ $X=3.67 $Y=4.885
Rg27	vdd!#24	vdd!#23	    1.5520	$mt3
+ $X=4.025 $Y=0.9805
Rg29	vdd!#25	vdd!#27	    0.1520	$mt3
+ $X=4.51 $Y=5.5005
Rg32	vdd!#30	vdd!#32	    1.8295	$mt3
+ $X=4.865 $Y=1.595
Rg42	vdd!#37	vdd!#36	    1.5520	$mt3
+ $X=9.265 $Y=0.9805
Rg46	vdd!#38	vdd!#40	    0.4295	$mt3
+ $X=10.105 $Y=1.595
Rg56	vdd!#41	vdd!#42	    2.9520	$mt3
+ $X=16.77 $Y=5.5005
Rg59	vdd!#48	vdd!#46	    1.8295	$mt3
+ $X=17.61 $Y=4.885
Rg62	vdd!#51	vdd!#49	    1.8295	$mt3
+ $X=18.13 $Y=4.885
Rg67	vdd!#55	vdd!#56	    0.1520	$mt3
+ $X=18.97 $Y=5.5005
Rg79	vdd!#61	vdd!#60	    1.5520	$mt3
+ $X=25.99 $Y=0.9805
Rg82	vdd!#62	vdd!#63	    2.5295	$mt3
+ $X=26.83 $Y=1.595
Rg10	CLK#14	CLK#3	    1.1140	$mt3	$X=-3.122 $Y=1.555
Rg11	CLK#15	CLK#14	    1.8765	$mt3	$X=-1.63 $Y=2.0875
Rg20	CLK#37	CLK#18	    1.1140	$mt3	$X=1.208 $Y=4.925
Rg21	CLK#38	CLK#37	    2.3607	$mt3	$X=2.7 $Y=3.8275
Rg23	CLK#39	CLK#29	    1.1140	$mt3	$X=2.1065 $Y=1.555
Rg24	CLK#45	CLK#29	    1.8765	$mt3	$X=0.595 $Y=2.0875
Rg36	CLK#67	CLK#48	    1.1140	$mt3	$X=6.448 $Y=4.925
Rg37	CLK#68	CLK#67	    2.3607	$mt3	$X=7.94 $Y=3.8275
Rg39	CLK#74	CLK#59	    1.1140	$mt3	$X=7.3465 $Y=1.555
Rg40	CLK#75	CLK#59	    1.8765	$mt3	$X=5.835 $Y=2.0875
Rg49	CLK#78	CLK#77	    1.9395	$mt3	$X=11.48 $Y=2.0375
Rg53	CLK#122	CLK#87	    2.5140	$mt3	$X=14.8515 $Y=4.925
Rg54	CLK#123	CLK#87	    2.3607	$mt3	$X=13.34 $Y=3.8275
Rg73	CLK#155	CLK#149	    1.1140	$mt3
+ $X=24.0715 $Y=1.555
Rg74	CLK#148	CLK#149	    0.4764	$mt3
+ $X=22.56 $Y=2.0875
Rg75	CLK#148	CLK#140	    0.9705	$mt3
+ $X=22.4 $Y=3.8275
Rg76	CLK#140	CLK#129	    1.1140	$mt3
+ $X=20.908 $Y=4.925
Rg1	Set#3	Set#1	    1.6224	$mt3	$X=-6.21 $Y=1.9875
Rg8	Set#10	Set#8	    2.6422	$mt3	$X=-2.07 $Y=3.7125
Rg22	Set#20	Set#16	    3.8536	$mt3	$X=3.16 $Y=3.4925
Rg33	Set#35	Set#34	    3.0095	$mt3	$X=5.38 $Y=2.0025
Rg47	Set#45	Set#44	    3.0095	$mt3	$X=10.62 $Y=2.0025
Rg52	Set#46	Set#47	    3.1294	$mt3	$X=16.145 $Y=1.8625
Rg61	Set#56	Set#55	    3.3563	$mt3	$X=17.87 $Y=2.955
Rg84	Set#76	Set#75	    1.6224	$mt3	$X=27.14 $Y=1.9875
Rg9	avC7#13	avC7#12	    0.9333	$mt3
+ $X=-2.085 $Y=1.265
Rg18	avC7#27	avC7#30	    0.4667	$mt3	$X=1 $Y=1.265
Rg19	avC7#40	avC7#39	    1.4000	$mt3
+ $X=2.425 $Y=5.215
Rg34	avC7#57	avC7#60	    0.4667	$mt3
+ $X=6.265 $Y=1.265
Rg35	avC7#70	avC7#69	    0.9333	$mt3
+ $X=7.52 $Y=5.215
Rg50	avC7#83	avC7#82	    0.9333	$mt3
+ $X=13.825 $Y=5.215
Rg51	avC7#128	avC7#125	    1.9820	$mt3
+ $X=15.03 $Y=3.1505
Rg70	avC7#145	avC7#144	    0.9333	$mt3
+ $X=21.955 $Y=5.215
Rg71	avC7#156	avC7#155	    0.9333	$mt3
+ $X=23.03 $Y=1.265
Rg6	avC6#8	avC6#2	    1.9822	$mt3	$X=-4.955 $Y=3.5375
Rg16	avC6#13	avC6#12	    1.6320	$mt3
+ $X=-0.52 $Y=3.9375
Rg28	avC6#23	avC6#22	    1.9865	$mt3
+ $X=4.375 $Y=3.5275
Rg31	avC6#32	avC6#31	    1.6372	$mt3
+ $X=4.745 $Y=3.935
Rg41	avC6#35	avC6#34	    1.6865	$mt3
+ $X=9.015 $Y=3.8825
Rg55	avC6#43	avC6#42	    1.6438	$mt3
+ $X=16.555 $Y=3.9175
Rg60	avC6#59	avC6#55	    2.8000	$mt3
+ $X=17.71 $Y=1.37
Rg69	avC6#68	avC6#65	    1.6567	$mt3
+ $X=19.185 $Y=3.9025
Rg77	avC6#72	avC6#71	    2.0786	$mt3
+ $X=25.6 $Y=3.855
Rg64	I200/avC10#5	I200/avC10#6	    1.9117	$mt3
+ $X=18.43 $Y=5.165
Rg58	I198/avC10#14	I198/avC10#15	    1.9117	$mt3
+ $X=17.31 $Y=5.165
Rg26	I201/avC10#5	I201/avC10#6	    1.9117	$mt3
+ $X=3.97 $Y=5.165
Rg13	I202/avC10#5	I202/avC10#6	    1.9117	$mt3
+ $X=-1.27 $Y=5.165
Rg81	I199/avC10#14	I199/avC10#15	    1.9117	$mt3
+ $X=26.53 $Y=1.315
Rg44	I197/avC10#14	I197/avC10#15	    1.9117	$mt3
+ $X=9.805 $Y=1.315
Rg30	I196/avC10#14	I196/avC10#15	    1.9117	$mt3
+ $X=4.565 $Y=1.315
Rg3	I203/avC10#4	I203/avC10#5	    1.9117	$mt3
+ $X=-5.6 $Y=1.315
Rh14	8_B0#4	8_B0#9	    0.9333	$mt2	$X=-2.775 $Y=4.5575
Rh28	8_B0#11	8_B0#12	    2.8000	$mt2
+ $X=-0.485 $Y=1.925
Rh75	8_B0#18	8_B0#19	    2.8017	$mt2
+ $X=8.6575 $Y=3.78
Rh121	8_B0#32	8_B0#27	    1.4000	$mt2
+ $X=18.21 $Y=1.725
Rh22	avC8#15	avC8#12	    1.4000	$mt2
+ $X=-1.15 $Y=3.65
Rh23	avC8#13	avC8#16	    1.4000	$mt2
+ $X=-1.145 $Y=1.43
Rh4	avC11#9	avC11#10	    2.8000	$mt2
+ $X=-5.48 $Y=5.08
Rh5	avC11#11	avC11#8	    1.4000	$mt2
+ $X=-5.48 $Y=2.79
Rh82	avC10	avC10#2	    1.4013	$mt2	$X=9.185 $Y=5.1675
Rh83	avC10#3	avC10#4	    2.8000	$mt2
+ $X=9.685 $Y=2.75
Rh135	avC17#11	avC17#3	    1.7650	$mt2
+ $X=20.2055 $Y=0.98
Rh137	avC17#13	avC17#12	    1.5788	$mt2
+ $X=21.028 $Y=2.12
Rh138	avC17#12	avC17#4	    1.5863	$mt2
+ $X=20.298 $Y=2.12
Rh156	avC19#6	avC19#7	    2.8000	$mt2
+ $X=26.21 $Y=5.16
Rh157	avC19#8	avC19#9	    2.8000	$mt2
+ $X=26.205 $Y=2.8
Rh93	avC14#7	avC14#5	    2.2842	$mt2
+ $X=9.8675 $Y=4.79
Rh124	avC14#16	avC14#17	    1.4000	$mt2
+ $X=18.755 $Y=3.63
Rh95	avC15#9	avC15#3	    1.7650	$mt2
+ $X=10.9855 $Y=5.5
Rh96	avC15#17	avC15#8	    1.5788	$mt2
+ $X=11.808 $Y=4.36
Rh97	avC15#8	avC15#7	    1.5863	$mt2
+ $X=11.078 $Y=4.36
Rh110	avC16	avC16#2	    2.8000	$mt2	$X=17.035 $Y=3.65
Rh122	avC16#11	avC16#12	    2.9986	$mt2
+ $X=18.43 $Y=1.065
Rh146	avC18#18	avC18#10	    1.5863	$mt2
+ $X=24.663 $Y=4.36
Rh147	avC18#10	avC18#7	    1.5788	$mt2
+ $X=23.933 $Y=4.36
Rh150	avC18#19	avC18#11	    1.7650	$mt2
+ $X=24.7555 $Y=5.5
Rh153	I206/avC7#10	I206/avC7#9	    1.4000	$mt2	$X=25.89 $Y=5.5
Rh158	I206/avC7#18	I206/avC7#11	    1.6072	$mt2
+ $X=26.14 $Y=4.24
Rh85	I204/avC7#9	I204/avC7#8	    1.4000	$mt2	$X=9.85 $Y=5.5
Rh86	I204/avC7#10	I204/avC7#2	    3.0072	$mt2	$X=9.6 $Y=4.24
Rh128	I205/avC7#8	I205/avC7#9	    1.4000	$mt2
+ $X=19.07 $Y=0.98
Rh129	I205/avC7#10	I205/avC7#2	    3.0072	$mt2
+ $X=18.82 $Y=2.24
Rh2	vdd!#2	vdd!#1	    1.4000	$mt2	$X=-5.9 $Y=2.195
Rh7	vdd!#7	vdd!#3	    1.7531	$mt2	$X=-5.48 $Y=1.165
Rh8	vdd!#5	vdd!#8	    2.8000	$mt2	$X=-5.06 $Y=0.79
Rh19	vdd!#10	vdd!#9	    1.4000	$mt2	$X=-1.57 $Y=4.285
Rh24	vdd!#15	vdd!#12	    1.4000	$mt2
+ $X=-0.73 $Y=5.69
Rh25	vdd!#13	vdd!#11	    0.3531	$mt2
+ $X=-1.15 $Y=5.315
Rh47	vdd!#18	vdd!#17	    1.4000	$mt2
+ $X=3.67 $Y=4.285
Rh50	vdd!#21	vdd!#23	    2.8000	$mt2
+ $X=4.025 $Y=0.79
Rh52	vdd!#26	vdd!#25	    2.8000	$mt2	$X=4.51 $Y=5.69
Rh53	vdd!#27	vdd!#19	    1.7531	$mt2
+ $X=4.09 $Y=5.315
Rh57	vdd!#31	vdd!#30	    1.4000	$mt2
+ $X=4.865 $Y=2.195
Rh58	vdd!#32	vdd!#24	    0.3531	$mt2
+ $X=4.445 $Y=1.165
Rh81	vdd!#34	vdd!#36	    2.8000	$mt2
+ $X=9.265 $Y=0.79
Rh87	vdd!#39	vdd!#38	    1.4000	$mt2
+ $X=10.105 $Y=2.195
Rh88	vdd!#40	vdd!#37	    1.7531	$mt2
+ $X=9.685 $Y=1.165
Rh109	vdd!#44	vdd!#41	    1.4000	$mt2
+ $X=16.77 $Y=5.69
Rh112	vdd!#47	vdd!#46	    1.4000	$mt2
+ $X=17.61 $Y=4.285
Rh113	vdd!#48	vdd!#42	    0.3531	$mt2
+ $X=17.19 $Y=5.315
Rh120	vdd!#50	vdd!#49	    1.4000	$mt2
+ $X=18.13 $Y=4.285
Rh125	vdd!#53	vdd!#55	    2.8000	$mt2
+ $X=18.97 $Y=5.69
Rh126	vdd!#56	vdd!#51	    1.7531	$mt2
+ $X=18.55 $Y=5.315
Rh155	vdd!#58	vdd!#60	    2.8000	$mt2
+ $X=25.99 $Y=0.79
Rh160	vdd!#64	vdd!#62	    0.7000	$mt2
+ $X=26.83 $Y=2.195
Rh162	vdd!#63	vdd!#61	    0.3531	$mt2
+ $X=26.41 $Y=1.165
Rh10	CLK#2	CLK#3	    1.5055	$mt2	$X=-4.5175 $Y=1.4105
Rh20	CLK#8	CLK#14	    2.8000	$mt2	$X=-1.73 $Y=1.555
Rh29	CLK#17	CLK#18	    1.5055	$mt2	$X=-0.1875 $Y=5.0705
Rh33	CLK#23	CLK#29	    2.8000	$mt2	$X=0.695 $Y=1.555
Rh40	CLK#36	CLK#37	    2.8000	$mt2	$X=2.6 $Y=4.925
Rh44	CLK#40	CLK#39	    2.9055	$mt2	$X=3.4825 $Y=1.4105
Rh60	CLK#47	CLK#48	    1.5055	$mt2	$X=5.0525 $Y=5.0705
Rh67	CLK#53	CLK#59	    2.8000	$mt2	$X=5.935 $Y=1.555
Rh74	CLK#66	CLK#67	    2.8000	$mt2	$X=7.84 $Y=4.925
Rh76	CLK#73	CLK#74	    1.5055	$mt2	$X=8.7225 $Y=1.4105
Rh94	CLK#76	CLK#77	    2.8000	$mt2	$X=11.475 $Y=1.4
Rh98	CLK#83	CLK#87	    2.8000	$mt2	$X=13.44 $Y=4.925
Rh104	CLK#121	CLK#122	    0.1055	$mt2
+ $X=16.2275 $Y=5.0705
Rh131	CLK#128	CLK#129	    1.5055	$mt2
+ $X=19.5125 $Y=5.0705
Rh141	CLK#139	CLK#140	    2.8000	$mt2
+ $X=22.3 $Y=4.925
Rh142	CLK#142	CLK#149	    2.8000	$mt2
+ $X=22.66 $Y=1.555
Rh148	CLK#154	CLK#155	    1.5055	$mt2
+ $X=25.4475 $Y=1.4105
Rh1	Set#2	Set#1	    2.8000	$mt2	$X=-6.21 $Y=1.72
Rh16	Set#9	Set#8	    2.8000	$mt2	$X=-2.07 $Y=5.17
Rh41	Set#17	Set#16	6.346e-03	$mt2	$X=3.16 $Y=4.73
Rh42	Set#18	Set#19	6.346e-03	$mt2	$X=3.215 $Y=4.785
Rh43	Set#18	Set#17	1.065e-02	$mt2	$X=3.1875 $Y=4.7575
Rh61	Set#32	Set#31	6.346e-03	$mt2	$X=5.32 $Y=1.695
Rh62	Set#33	Set#34	6.346e-03	$mt2	$X=5.375 $Y=1.75
Rh63	Set#33	Set#32	1.065e-02	$mt2	$X=5.3475 $Y=1.7225
Rh90	Set#42	Set#41	6.346e-03	$mt2	$X=10.56 $Y=1.695
Rh91	Set#43	Set#44	6.346e-03	$mt2	$X=10.615 $Y=1.75
Rh92	Set#43	Set#42	1.065e-02	$mt2	$X=10.5875 $Y=1.7225
Rh103	Set#48	Set#47	    1.4000	$mt2	$X=16.145 $Y=1.47
Rh119	Set#61	Set#55	    1.4000	$mt2	$X=17.87 $Y=3.595
Rh164	Set#74	Set#75	    1.4000	$mt2	$X=27.14 $Y=1.72
Rh17	avC7#10	avC7#12	    1.5253	$mt2
+ $X=-1.907 $Y=1.255
Rh18	avC7#5	avC7#12	    0.7370	$mt2	$X=-3.0775 $Y=1.27
Rh35	avC7#19	avC7#30	    1.5150	$mt2
+ $X=0.895 $Y=1.265
Rh36	avC7#31	avC7#30	    0.7762	$mt2
+ $X=1.9625 $Y=1.27
Rh38	avC7#35	avC7#39	    1.4618	$mt2
+ $X=2.513 $Y=5.225
Rh39	avC7#22	avC7#39	    0.8298	$mt2
+ $X=1.4625 $Y=5.21
Rh69	avC7#49	avC7#60	    1.5165	$mt2
+ $X=6.0995 $Y=1.255
Rh70	avC7#61	avC7#60	    0.7517	$mt2
+ $X=7.2275 $Y=1.27
Rh72	avC7#65	avC7#69	    1.5129	$mt2
+ $X=7.6805 $Y=5.225
Rh73	avC7#52	avC7#69	    0.7435	$mt2
+ $X=6.5275 $Y=5.21
Rh99	avC7#94	avC7#125	    2.1000	$mt2
+ $X=15.03 $Y=2.35
Rh100	avC7#126	avC7#82	    0.7107	$mt2
+ $X=14.8175 $Y=5.21
Rh101	avC7#77	avC7#82	    1.5359	$mt2
+ $X=13.633 $Y=5.225
Rh139	avC7#141	avC7#144	    1.5218	$mt2
+ $X=22.128 $Y=5.225
Rh140	avC7#134	avC7#144	    0.7312	$mt2
+ $X=20.965 $Y=5.21
Rh143	avC7#154	avC7#155	    0.7344	$mt2
+ $X=24.485 $Y=1.445
Rh144	avC7#151	avC7#155	    1.5327	$mt2
+ $X=22.893 $Y=1.2575
Rh9	avC6	avC6#2	    2.8000	$mt2	$X=-4.955 $Y=2.85
Rh27	avC6#9	avC6#12	    2.8000	$mt2	$X=-0.49 $Y=3.65
Rh51	avC6#21	avC6#22	    2.8000	$mt2
+ $X=4.375 $Y=2.835
Rh56	avC6#29	avC6#31	    1.4000	$mt2
+ $X=4.745 $Y=3.65
Rh79	avC6#33	avC6#34	    3.1252	$mt2
+ $X=9.015 $Y=3.1525
Rh107	avC6#41	avC6#42	    2.8000	$mt2
+ $X=16.56 $Y=3.625
Rh116	avC6#58	avC6#55	    0.2893	$mt2
+ $X=17.1575 $Y=1.62
Rh117	avC6#58	avC6#54	    0.2700	$mt2
+ $X=16.9 $Y=1.3275
Rh118	avC6#58	avC6#51	    0.1231	$mt2
+ $X=16.902 $Y=1.6895
Rh130	avC6#66	avC6#65	    2.8000	$mt2
+ $X=19.18 $Y=3.595
Rh152	avC6#70	avC6#71	    2.8000	$mt2
+ $X=25.78 $Y=2.85
Rh123	I200/avC10	I200/avC10#5	    1.5200	$mt2
+ $X=18.2805 $Y=5.77
Rh127	I200/avC10#7	I200/avC10#6	    1.6152	$mt2
+ $X=18.67 $Y=4.555
Rh132	I200/avC10#17	I200/avC10#11	    3.1888	$mt2
+ $X=19.4075 $Y=4.235
Rh136	I200/I0/avC9#11	I200/I0/avC9#7	    2.9790	$mt2
+ $X=20.8005 $Y=4.1425
Rh108	I198/avC10#13	I198/avC10#6	    3.1888	$mt2
+ $X=16.3325 $Y=4.235
Rh111	I198/avC10#9	I198/avC10#14	    3.0152	$mt2
+ $X=17.07 $Y=4.555
Rh114	I198/avC10#18	I198/avC10#15	    0.1200	$mt2
+ $X=17.4605 $Y=5.77
Rh102	I198/I0/avC9#7	I198/I0/avC9#2	    2.9790	$mt2
+ $X=14.9405 $Y=4.1425
Rh48	I201/avC10	I201/avC10#5	    1.5200	$mt2
+ $X=3.8205 $Y=5.77
Rh54	I201/avC10#7	I201/avC10#6	    1.6152	$mt2
+ $X=4.21 $Y=4.555
Rh64	I201/avC10#17	I201/avC10#11	    3.1888	$mt2
+ $X=4.9475 $Y=4.235
Rh68	I201/I0/avC9#11	I201/I0/avC9#7	    2.9790	$mt2
+ $X=6.3405 $Y=4.1425
Rh21	I202/avC10	I202/avC10#5	    1.5200	$mt2
+ $X=-1.4195 $Y=5.77
Rh26	I202/avC10#7	I202/avC10#6	    1.6152	$mt2
+ $X=-1.03 $Y=4.555
Rh30	I202/avC10#17	I202/avC10#11	    3.1888	$mt2
+ $X=-0.2925 $Y=4.235
Rh34	I202/I0/avC9#11	I202/I0/avC9#7	    2.9790	$mt2
+ $X=1.1005 $Y=4.1425
Rh154	I199/avC10#13	I199/avC10#2	    1.7888	$mt2
+ $X=25.5525 $Y=2.245
Rh159	I199/avC10#9	I199/avC10#14	    3.0152	$mt2
+ $X=26.29 $Y=1.925
Rh163	I199/avC10#18	I199/avC10#15	    0.1200	$mt2
+ $X=26.6805 $Y=0.71
Rh145	I199/I0/avC9#8	I199/I0/avC9#4	    2.9790	$mt2
+ $X=24.1605 $Y=2.3375
Rh80	I197/avC10#13	I197/avC10#2	    1.7888	$mt2
+ $X=8.8275 $Y=2.245
Rh84	I197/avC10#9	I197/avC10#14	    3.0152	$mt2
+ $X=9.565 $Y=1.925
Rh89	I197/avC10#18	I197/avC10#15	    0.1200	$mt2
+ $X=9.9555 $Y=0.71
Rh71	I197/I0/avC9#8	I197/I0/avC9#4	    2.9790	$mt2
+ $X=7.4355 $Y=2.3375
Rh49	I196/avC10#13	I196/avC10#2	    1.7888	$mt2
+ $X=3.5875 $Y=2.245
Rh55	I196/avC10#9	I196/avC10#14	    3.0152	$mt2
+ $X=4.325 $Y=1.925
Rh59	I196/avC10#18	I196/avC10#15	    0.1200	$mt2
+ $X=4.7155 $Y=0.71
Rh37	I196/I0/avC9#8	I196/I0/avC9#4	    2.9790	$mt2
+ $X=2.1955 $Y=2.3375
Rh3	I203/avC10#3	I203/avC10#4	    1.5200	$mt2
+ $X=-5.7495 $Y=0.71
Rh6	I203/avC10#6	I203/avC10#5	    1.6152	$mt2
+ $X=-5.36 $Y=1.925
Rh11	I203/avC10#12	I203/avC10#10	    3.1888	$mt2
+ $X=-4.6225 $Y=2.245
Rh15	I203/I0/avC9#13	I203/I0/avC9#8	    2.9790	$mt2
+ $X=-3.2295 $Y=2.3375
Ri889	gnd!#2	gnd!#1	   15.0533	$mt1	$X=26.72 $Y=6.04
Ri890	gnd!#3	gnd!#2	    0.6033	$mt1	$X=24.6795 $Y=6.21
Ri891	gnd!#4	gnd!#2	    5.4819	$mt1	$X=27.5525 $Y=3.2405
Ri892	gnd!#5	gnd!#4	    0.1300	$mt1	$X=22.48 $Y=0.27
Ri893	gnd!#4	gnd!#6	    4.2250	$mt1	$X=17.7495 $Y=0.28
Ri894	gnd!#6	gnd!#7	    3.1426	$mt1	$X=10.447 $Y=0.28
Ri895	gnd!#8	gnd!#7	    0.7932	$mt1	$X=7.7445 $Y=0.27
Ri896	gnd!#9	gnd!#7	    0.7135	$mt1	$X=2.2655 $Y=0.27
Ri897	gnd!#7	gnd!	    2.9028	$mt1	$X=-0.493 $Y=0.28
Ri898	gnd!#10	gnd!	    0.7933	$mt1	$X=-3.54 $Y=0.27
Ri899	gnd!#12	gnd!#2	    0.4533	$mt1	$X=26.31 $Y=5.87
Ri901	gnd!#15	gnd!#2	    0.3733	$mt1	$X=24.95 $Y=5.99
Ri903	gnd!#18	gnd!#2	    0.4133	$mt1	$X=23.37 $Y=5.93
Ri905	gnd!#21	gnd!#2	    0.3533	$mt1	$X=22.85 $Y=5.9425
Ri913	gnd!#33	gnd!#4	    0.3533	$mt1	$X=22.11 $Y=0.5375
Ri915	gnd!#36	gnd!#4	    0.4133	$mt1	$X=21.59 $Y=0.55
Ri917	gnd!#39	gnd!#4	    0.3733	$mt1	$X=20.01 $Y=0.49
Ri919	gnd!#42	gnd!#4	    0.4533	$mt1	$X=18.65 $Y=0.61
Ri921	gnd!#4	gnd!#1	   15.0533	$mt1	$X=22.48 $Y=0.28
Ri938	gnd!#6	gnd!#1	   15.0533	$mt1	$X=14.03 $Y=0.28
Ri943	gnd!#75	gnd!#7	    0.3533	$mt1	$X=5.385 $Y=0.5375
Ri949	gnd!#84	gnd!#7	    0.3533	$mt1	$X=0.145 $Y=0.5375
Ri951	gnd!#87	gnd!	    0.3533	$mt1	$X=-1.18 $Y=0.5375
Ri963	gnd!#104	gnd!#2	    0.6434	$mt1	$X=14.8 $Y=6.21
Ri964	gnd!#106	gnd!#2	    0.3533	$mt1	$X=12.89 $Y=5.9425
Ri966	gnd!#108	gnd!#2	    1.2131	$mt1	$X=12.5305 $Y=6.2
Ri967	gnd!#110	gnd!#108	    0.3883	$mt1
+ $X=12.37 $Y=5.93
Ri969	gnd!#108	gnd!#2	    1.1929	$mt1	$X=12.254 $Y=6.2
Ri970	gnd!#113	gnd!#2	    0.3733	$mt1	$X=10.79 $Y=5.99
Ri972	gnd!#116	gnd!#2	    0.4533	$mt1	$X=9.43 $Y=5.87
Ri974	gnd!#2	gnd!#1	   15.0533	$mt1	$X=9.98 $Y=6.2
Ri975	gnd!#118	gnd!#2	    0.5234	$mt1	$X=9.98 $Y=6.21
Ri976	gnd!#120	gnd!#2	    0.3533	$mt1	$X=8.39 $Y=5.9425
Ri982	gnd!#128	gnd!#2	    0.6634	$mt1	$X=5.16 $Y=6.21
Ri983	gnd!#130	gnd!#2	    0.3533	$mt1	$X=3.15 $Y=5.9425
Ri989	gnd!#2	gnd!#138	    1.6702	$mt1	$X=-2.155 $Y=6.2
Ri990	gnd!#140	gnd!#138	    0.4233	$mt1
+ $X=-3.21 $Y=5.9075
Ri992	gnd!#138	gnd!#142	    0.7850	$mt1
+ $X=-3.7305 $Y=6.2
Ri993	gnd!#144	gnd!#142	    0.3533	$mt1
+ $X=-4.84 $Y=5.945
Ri995	gnd!#3	gnd!#1	   15.0000	$mt1	$X=22.87 $Y=6.24
Ri996	gnd!#5	gnd!#1	   15.0000	$mt1	$X=22.09 $Y=0.24
Ri997	gnd!#8	gnd!#1	   15.0000	$mt1	$X=5.365 $Y=0.24
Ri998	gnd!#9	gnd!#1	   15.0000	$mt1	$X=0.125 $Y=0.24
Ri999	gnd!#10	gnd!#1	   15.0000	$mt1	$X=-1.16 $Y=0.24
Ri1000	gnd!#12	gnd!#11	   15.0000	$mt1	$X=26.31 $Y=5.5
Ri1001	gnd!#15	gnd!#14	   15.0000	$mt1
+ $X=24.95 $Y=5.62
Ri1002	gnd!#18	gnd!#17	   15.0000	$mt1
+ $X=23.37 $Y=5.56
Ri1003	gnd!#21	gnd!#20	   15.0000	$mt1
+ $X=22.85 $Y=5.645
Ri1007	gnd!#33	gnd!#32	   15.0000	$mt1
+ $X=22.11 $Y=0.835
Ri1008	gnd!#36	gnd!#35	   15.0000	$mt1
+ $X=21.59 $Y=0.92
Ri1009	gnd!#39	gnd!#38	   15.0000	$mt1
+ $X=20.01 $Y=0.86
Ri1010	gnd!#42	gnd!#41	   15.0000	$mt1
+ $X=18.65 $Y=0.98
Ri1021	gnd!#75	gnd!#74	   15.0000	$mt1
+ $X=5.385 $Y=0.835
Ri1024	gnd!#84	gnd!#83	   15.0000	$mt1
+ $X=0.145 $Y=0.835
Ri1025	gnd!#87	gnd!#86	   15.0000	$mt1
+ $X=-1.18 $Y=0.835
Ri1031	gnd!#104	gnd!#1	   15.0000	$mt1	$X=12.87 $Y=6.24
Ri1032	gnd!#106	gnd!#105	   15.0000	$mt1
+ $X=12.89 $Y=5.645
Ri1033	gnd!#110	gnd!#109	   15.0000	$mt1
+ $X=12.37 $Y=5.56
Ri1034	gnd!#113	gnd!#112	   15.0000	$mt1
+ $X=10.79 $Y=5.62
Ri1035	gnd!#116	gnd!#115	   15.0000	$mt1	$X=9.43 $Y=5.5
Ri1036	gnd!#118	gnd!#1	   15.0000	$mt1	$X=8.41 $Y=6.24
Ri1037	gnd!#120	gnd!#119	   15.0000	$mt1
+ $X=8.39 $Y=5.645
Ri1040	gnd!#128	gnd!#1	   15.0000	$mt1	$X=3.17 $Y=6.24
Ri1041	gnd!#130	gnd!#129	   15.0000	$mt1
+ $X=3.15 $Y=5.645
Ri1044	gnd!#140	gnd!#139	   15.0000	$mt1
+ $X=-3.21 $Y=5.545
Ri1045	gnd!#144	gnd!#143	   15.0000	$mt1
+ $X=-4.84 $Y=5.65
Ri50	8_B0#2	8_B0#4	    0.1747	$mt1	$X=-2.7775 $Y=4.2785
Ri51	8_B0#4	8_B0#5	    0.2467	$mt1	$X=-2.775 $Y=4.7955
Ri52	8_B0#5	8_B0#7	    0.3420	$mt1	$X=-2.79 $Y=5.2375
Ri54	8_B0#1	8_B0#2	    7.5000	$mt1	$X=-2.79 $Y=4.23
Ri55	8_B0#6	8_B0#7	   15.0000	$mt1	$X=-2.79 $Y=5.545
Ri119	8_B0	8_B0#12	    0.7151	$mt1	$X=-0.185 $Y=1.44
Ri330	8_B0#19	8_B0#21	    0.7235	$mt1
+ $X=8.665 $Y=4.24
Ri502	8_B0#28	8_B0#29	6.000e-03	$mt1
+ $X=18.165 $Y=1.655
Ri504	8_B0#31	8_B0#32	6.000e-03	$mt1
+ $X=18.21 $Y=1.725
Ri505	8_B0#29	8_B0#31	2.333e-02	$mt1
+ $X=18.1875 $Y=1.69
Ri694	8_B0#40	8_B0#41	   10.0000	$mt1
+ $X=26.795 $Y=4.825
Ri695	8_B0#41	8_B0#38	    1.4083	$mt1
+ $X=26.795 $Y=4.825
Ri88	avC8#6	avC8#8	    0.4533	$mt1	$X=-1.15 $Y=5.3055
Ri89	avC8#8	avC8#10	    0.4400	$mt1	$X=-1.15 $Y=4.8005
Ri91	avC8#10	avC8#12	    1.8510	$mt1
+ $X=-1.15 $Y=3.9155
Ri92	avC8#5	avC8#6	   15.0000	$mt1	$X=-1.15 $Y=5.69
Ri93	avC8#9	avC8#10	    7.5000	$mt1	$X=-1.15 $Y=4.35
Ri94	avC8#13	avC8	    1.4480	$mt1	$X=-1.2 $Y=1.42
Ri7	avC11#2	avC11#4	    0.4400	$mt1
+ $X=-5.48 $Y=1.6805
Ri8	avC11#4	avC11#6	    0.4533	$mt1
+ $X=-5.48 $Y=1.1755
Ri10	avC11#2	avC11#8	    1.8197	$mt1
+ $X=-5.48 $Y=2.527
Ri11	avC11	avC11#2	    7.5000	$mt1	$X=-5.48 $Y=2.13
Ri12	avC11#5	avC11#6	   15.0000	$mt1
+ $X=-5.48 $Y=0.79
Ri21	avC11#12	avC11#13	9.200e-02	$mt1
+ $X=-4.81 $Y=5.08
Ri22	avC11#13	avC11#9	    0.3447	$mt1
+ $X=-5.1675 $Y=5.08
Ri244	avC13#2	avC13#4	    0.4400	$mt1
+ $X=4.445 $Y=1.6805
Ri245	avC13#4	avC13#5	    0.2203	$mt1
+ $X=4.445 $Y=1.303
Ri246	avC13#5	avC13#7	    0.2269	$mt1
+ $X=4.445 $Y=1.0075
Ri248	avC13#5	avC13#9	    0.6851	$mt1	$X=4.9 $Y=1.135
Ri250	avC13	avC13#2	    7.5000	$mt1	$X=4.445 $Y=2.13
Ri251	avC13#6	avC13#7	   15.0000	$mt1
+ $X=4.445 $Y=0.79
Ri345	avC10#6	avC10#8	    0.4400	$mt1
+ $X=9.685 $Y=1.6805
Ri346	avC10#8	avC10#10	    0.4533	$mt1
+ $X=9.685 $Y=1.1755
Ri348	avC10#6	avC10#3	    0.3870	$mt1
+ $X=9.685 $Y=2.4845
Ri349	avC10#5	avC10#6	    7.5000	$mt1
+ $X=9.685 $Y=2.13
Ri350	avC10#9	avC10#10	   15.0000	$mt1
+ $X=9.685 $Y=0.79
Ri353	avC10#12	avC10	   10.4417	$mt1	$X=9.7175 $Y=5.16
Ri534	avC17	avC17#2	   15.0000	$mt1	$X=19.49 $Y=0.98
Ri535	avC17#2	avC17#3	    1.4046	$mt1
+ $X=19.4775 $Y=0.98
Ri542	avC17#4	avC17#5	8.857e-02	$mt1
+ $X=19.9225 $Y=2.275
Ri544	avC17#6	avC17#5	    5.0000	$mt1
+ $X=19.91 $Y=2.275
Ri565	avC17#8	avC17#11	2.892e-03	$mt1
+ $X=20.9375 $Y=0.955
Ri566	avC17#11	avC17#12	    2.1735	$mt1
+ $X=20.8025 $Y=1.095
Ri567	avC17#9	avC17#8	   15.0000	$mt1
+ $X=20.95 $Y=0.92
Ri589	avC17#16	avC17#19	    0.7617	$mt1
+ $X=21.94 $Y=1.44
Ri590	avC17#19	avC17#13	2.308e-02	$mt1
+ $X=21.46 $Y=2.12
Ri591	avC17#13	avC17#20	   15.0046	$mt1
+ $X=21.3825 $Y=2.12
Ri684	avC19#11	avC19#8	    0.4495	$mt1
+ $X=26.41 $Y=2.547
Ri685	avC19#11	avC19#13	    0.4400	$mt1
+ $X=26.41 $Y=1.6805
Ri686	avC19#13	avC19#15	    0.4533	$mt1
+ $X=26.41 $Y=1.1755
Ri688	avC19#10	avC19#11	    7.5000	$mt1
+ $X=26.41 $Y=2.13
Ri689	avC19#14	avC19#15	   15.0000	$mt1
+ $X=26.41 $Y=0.79
Ri697	avC19#7	avC19#5	    0.2407	$mt1
+ $X=25.965 $Y=5.16
Ri206	avC12#6	avC12#8	    0.2269	$mt1
+ $X=4.09 $Y=5.473
Ri207	avC12#8	avC12	    0.6734	$mt1	$X=3.635 $Y=5.345
Ri209	avC12#8	avC12#10	    0.2203	$mt1
+ $X=4.09 $Y=5.1775
Ri210	avC12#10	avC12#12	    0.4400	$mt1
+ $X=4.09 $Y=4.8005
Ri212	avC12#5	avC12#6	   15.0000	$mt1	$X=4.09 $Y=5.69
Ri213	avC12#11	avC12#12	    7.5000	$mt1	$X=4.09 $Y=4.35
Ri322	avC14#5	avC14	    1.4438	$mt1	$X=8.305 $Y=4.965
Ri516	avC14#10	avC14#12	    0.4533	$mt1
+ $X=18.55 $Y=5.3055
Ri517	avC14#12	avC14#14	    0.4400	$mt1
+ $X=18.55 $Y=4.8185
Ri519	avC14#14	avC14#16	    1.7503	$mt1
+ $X=18.6275 $Y=4.11
Ri520	avC14#9	avC14#10	   15.0000	$mt1
+ $X=18.55 $Y=5.69
Ri521	avC14#13	avC14#14	    7.5000	$mt1
+ $X=18.55 $Y=4.35
Ri357	avC15	avC15#2	   15.0000	$mt1	$X=10.27 $Y=5.5
Ri358	avC15#2	avC15#3	    1.4046	$mt1
+ $X=10.2575 $Y=5.5
Ri362	avC15#5	avC15#7	8.267e-02	$mt1
+ $X=10.7025 $Y=4.2875
Ri363	avC15#4	avC15#5	    5.0000	$mt1
+ $X=10.69 $Y=4.205
Ri371	avC15#8	avC15#9	    2.1735	$mt1
+ $X=11.465 $Y=4.9075
Ri372	avC15#9	avC15#11	2.892e-03	$mt1
+ $X=11.7175 $Y=5.525
Ri374	avC15#10	avC15#11	   15.0000	$mt1
+ $X=11.73 $Y=5.56
Ri381	avC15#17	avC15#15	    0.7138	$mt1
+ $X=12.33 $Y=4.5975
Ri383	avC15#18	avC15#17	   15.0000	$mt1
+ $X=12.15 $Y=4.36
Ri490	avC16#5	avC16#7	    0.4533	$mt1
+ $X=17.19 $Y=5.3055
Ri491	avC16#7	avC16#9	    0.4400	$mt1
+ $X=17.19 $Y=4.8185
Ri493	avC16#9	avC16	    0.3591	$mt1	$X=17.1125 $Y=4.11
Ri494	avC16#4	avC16#5	   15.0000	$mt1
+ $X=17.19 $Y=5.69
Ri495	avC16#8	avC16#9	    7.5000	$mt1
+ $X=17.19 $Y=4.35
Ri531	avC16#11	avC16#15	   10.4557	$mt1
+ $X=18.835 $Y=1.32
Ri613	avC18#6	avC18#7	4.615e-03	$mt1
+ $X=23.5775 $Y=4.36
Ri614	avC18#7	avC18#8	2.308e-02	$mt1	$X=23.5 $Y=4.36
Ri615	avC18#8	avC18	    0.7617	$mt1	$X=23.28 $Y=4.43
Ri617	avC18#5	avC18#6	   15.0000	$mt1
+ $X=23.59 $Y=4.36
Ri632	avC18#10	avC18#11	    2.2010	$mt1
+ $X=24.275 $Y=4.9075
Ri633	avC18#11	avC18#13	3.934e-03	$mt1
+ $X=24.0225 $Y=5.525
Ri635	avC18#12	avC18#13	   15.0000	$mt1
+ $X=24.01 $Y=5.56
Ri648	avC18#16	avC18#18	    0.1033	$mt1
+ $X=25.0375 $Y=4.2875
Ri649	avC18#15	avC18#16	    5.0000	$mt1
+ $X=25.05 $Y=4.205
Ri668	avC18#19	avC18#21	    1.4046	$mt1
+ $X=25.4825 $Y=5.5
Ri670	avC18#20	avC18#21	   15.0000	$mt1	$X=25.47 $Y=5.5
Ri42	avC9#2	avC9#3	    0.6819	$mt1	$X=-3.82 $Y=5.035
Ri43	avC9#3	avC9#5	    0.3089	$mt1	$X=-4.3 $Y=4.84
Ri45	avC9#3	avC9#8	    0.3833	$mt1	$X=-4.3 $Y=5.35
Ri47	avC9#4	avC9#5	   15.0000	$mt1	$X=-4.36 $Y=4.585
Ri48	avC9#7	avC9#8	   15.0000	$mt1	$X=-4.3 $Y=5.65
Ri629	I206/avC7#4	I206/avC7#2	    0.7347	$mt1
+ $X=24.01 $Y=4.892
Ri630	I206/avC7#4	I206/avC7#6	   10.4700	$mt1
+ $X=24.01 $Y=3.978
Ri631	I206/avC7#3	I206/avC7#4	   15.0000	$mt1
+ $X=24.01 $Y=4.36
Ri673	I206/avC7#7	I206/avC7#8	   15.0000	$mt1	$X=25.89 $Y=5.5
Ri674	I206/avC7#8	I206/avC7#9	    1.4000	$mt1	$X=25.89 $Y=5.5
Ri691	I206/avC7#16	I206/avC7#18	2.500e-02	$mt1
+ $X=26.395 $Y=4.29
Ri692	I206/avC7#18	I206/avC7#12	    0.2625	$mt1
+ $X=26.39 $Y=3.973
Ri693	I206/avC7#15	I206/avC7#16	   15.0000	$mt1
+ $X=26.41 $Y=4.29
Ri658	I206/avC6#5	I206/avC6#7	    0.9750	$mt1
+ $X=25.1555 $Y=4.905
Ri659	I206/avC6#7	I206/avC6#9	    0.5183	$mt1
+ $X=24.53 $Y=4.905
Ri661	I206/avC6#7	I206/avC6	    0.5639	$mt1
+ $X=24.65 $Y=4.4575
Ri662	I206/avC6#4	I206/avC6#5	    5.0000	$mt1
+ $X=25.47 $Y=4.205
Ri663	I206/avC6#8	I206/avC6#9	   15.0000	$mt1
+ $X=24.53 $Y=5.62
Ri340	I204/avC7	I204/avC7#2	   10.2625	$mt1
+ $X=9.35 $Y=3.972
Ri341	I204/avC7#2	I204/avC7#4	2.500e-02	$mt1
+ $X=9.345 $Y=4.26
Ri343	I204/avC7#3	I204/avC7#4	   15.0000	$mt1	$X=9.33 $Y=4.29
Ri351	I204/avC7#6	I204/avC7#7	   15.0000	$mt1	$X=9.85 $Y=5.5
Ri352	I204/avC7#7	I204/avC7#8	    1.4000	$mt1	$X=9.85 $Y=5.5
Ri376	I204/avC7#15	I204/avC7#11	    0.4700	$mt1
+ $X=11.73 $Y=3.978
Ri377	I204/avC7#15	I204/avC7#17	   10.7347	$mt1
+ $X=11.73 $Y=4.892
Ri378	I204/avC7#14	I204/avC7#15	   15.0000	$mt1
+ $X=11.73 $Y=4.36
Ri365	I204/avC6#2	I204/avC6#4	    0.5183	$mt1
+ $X=11.21 $Y=5.173
Ri366	I204/avC6#4	I204/avC6#6	    0.9750	$mt1
+ $X=10.68 $Y=4.905
Ri368	I204/avC6#4	I204/avC6#8	   10.5639	$mt1
+ $X=11.09 $Y=4.4575
Ri369	I204/avC6	I204/avC6#2	   15.0000	$mt1
+ $X=11.21 $Y=5.62
Ri370	I204/avC6#5	I204/avC6#6	    5.0000	$mt1
+ $X=10.27 $Y=4.205
Ri511	I205/avC7	I205/avC7#2	   10.2625	$mt1
+ $X=18.57 $Y=2.508
Ri512	I205/avC7#2	I205/avC7#4	2.500e-02	$mt1
+ $X=18.565 $Y=2.22
Ri514	I205/avC7#3	I205/avC7#4	   15.0000	$mt1
+ $X=18.55 $Y=2.19
Ri528	I205/avC7#6	I205/avC7#7	   15.0000	$mt1
+ $X=19.07 $Y=0.98
Ri529	I205/avC7#7	I205/avC7#8	    1.4000	$mt1
+ $X=19.07 $Y=0.98
Ri577	I205/avC7#11	I205/avC7#15	    0.4700	$mt1
+ $X=20.95 $Y=2.503
Ri579	I205/avC7#15	I205/avC7#17	   10.7347	$mt1
+ $X=20.95 $Y=1.588
Ri580	I205/avC7#14	I205/avC7#15	   15.0000	$mt1
+ $X=20.95 $Y=2.12
Ri557	I205/avC6#2	I205/avC6#4	    0.5183	$mt1
+ $X=20.43 $Y=1.307
Ri558	I205/avC6#4	I205/avC6#6	    0.9750	$mt1
+ $X=19.9 $Y=1.575
Ri560	I205/avC6#4	I205/avC6#8	   10.5639	$mt1
+ $X=20.31 $Y=2.0225
Ri561	I205/avC6	I205/avC6#2	   15.0000	$mt1
+ $X=20.43 $Y=0.86
Ri562	I205/avC6#5	I205/avC6#6	    5.0000	$mt1
+ $X=19.49 $Y=2.275
Ri569	I200/I0/avC8	I200/I0/avC8#6	    0.9970	$mt1
+ $X=20.8005 $Y=5.345
Ri572	I200/I0/avC8#6	I200/I0/avC8#5	   15.0000	$mt1
+ $X=21.27 $Y=5.735
Ri458	I198/I0/avC8#6	I198/I0/avC8	    0.9970	$mt1
+ $X=15.41 $Y=5.465
Ri461	I198/I0/avC8#6	I198/I0/avC8#5	   15.0000	$mt1
+ $X=14.47 $Y=5.735
Ri268	I201/I0/avC8	I201/I0/avC8#6	    0.9970	$mt1
+ $X=6.3405 $Y=5.345
Ri271	I201/I0/avC8#6	I201/I0/avC8#5	   15.0000	$mt1
+ $X=6.81 $Y=5.735
Ri136	I202/I0/avC8	I202/I0/avC8#6	    0.9970	$mt1
+ $X=1.1005 $Y=5.345
Ri139	I202/I0/avC8#6	I202/I0/avC8#5	   15.0000	$mt1
+ $X=1.57 $Y=5.735
Ri643	I199/I0/avC8#6	I199/I0/avC8	    0.9970	$mt1
+ $X=24.63 $Y=1.015
Ri646	I199/I0/avC8#6	I199/I0/avC8#5	   15.0000	$mt1
+ $X=23.69 $Y=0.745
Ri311	I197/I0/avC8#6	I197/I0/avC8	    0.9970	$mt1
+ $X=7.905 $Y=1.015
Ri314	I197/I0/avC8#6	I197/I0/avC8#5	   15.0000	$mt1
+ $X=6.965 $Y=0.745
Ri179	I196/I0/avC8#6	I196/I0/avC8	    0.9970	$mt1
+ $X=2.665 $Y=1.015
Ri182	I196/I0/avC8#6	I196/I0/avC8#5	   15.0000	$mt1
+ $X=1.725 $Y=0.745
Ri60	I203/I0/avC8	I203/I0/avC8#6	    0.9970	$mt1
+ $X=-3.2295 $Y=1.135
Ri63	I203/I0/avC8#6	I203/I0/avC8#5	   15.0000	$mt1
+ $X=-2.76 $Y=0.745
Ri17	vdd!#4	vdd!#5	   15.0000	$mt1	$X=-5.06 $Y=0.79
Ri100	vdd!#14	vdd!#15	   15.0000	$mt1
+ $X=-0.73 $Y=5.69
Ri214	vdd!#20	vdd!#21	   15.0000	$mt1
+ $X=4.025 $Y=0.79
Ri222	vdd!#28	vdd!#26	   15.0000	$mt1	$X=4.51 $Y=5.69
Ri336	vdd!#33	vdd!#34	   15.0000	$mt1
+ $X=9.265 $Y=0.79
Ri479	vdd!#43	vdd!#44	   15.0000	$mt1
+ $X=16.77 $Y=5.69
Ri526	vdd!#52	vdd!#53	   15.0000	$mt1
+ $X=18.97 $Y=5.69
Ri679	vdd!#57	vdd!#58	   15.0000	$mt1
+ $X=25.99 $Y=0.79
Ri701	vdd!#66	vdd!	    0.6490	$mt1	$X=26.83 $Y=3.7855
Ri702	vdd!#68	vdd!	    0.5149	$mt1	$X=26.83 $Y=2.805
Ri703	vdd!#68	vdd!#64	2.000e-02	$mt1
+ $X=26.8295 $Y=2.2325
Ri704	vdd!#68	vdd!#64	1.733e-02	$mt1
+ $X=26.83 $Y=2.1625
Ri705	vdd!#70	vdd!#68	1.733e-02	$mt1
+ $X=26.83 $Y=2.1625
Ri708	vdd!#75	vdd!	    0.5767	$mt1	$X=25.89 $Y=3.5775
Ri712	vdd!#81	vdd!	8.667e-02	$mt1	$X=22.17 $Y=3.07
Ri713	vdd!#83	vdd!#81	    0.4867	$mt1
+ $X=22.11 $Y=2.605
Ri715	vdd!#80	vdd!	   15.0918	$mt1	$X=23.41 $Y=3.41
Ri716	vdd!#85	vdd!	8.667e-02	$mt1	$X=22.79 $Y=3.41
Ri717	vdd!#87	vdd!#85	    0.4867	$mt1
+ $X=22.85 $Y=3.875
Ri719	vdd!#80	vdd!	   15.0918	$mt1	$X=21.55 $Y=3.07
Ri720	vdd!#90	vdd!	    0.5767	$mt1	$X=19.07 $Y=2.9025
Ri726	vdd!#99	vdd!	    0.6333	$mt1	$X=18.13 $Y=2.695
Ri728	vdd!#101	vdd!	    0.6361	$mt1	$X=18.355 $Y=3.6175
Ri729	vdd!#101	vdd!#50	2.000e-02	$mt1
+ $X=18.1275 $Y=4.2475
Ri730	vdd!#101	vdd!#50	1.733e-02	$mt1
+ $X=18.13 $Y=4.3175
Ri731	vdd!#103	vdd!#101	1.733e-02	$mt1
+ $X=18.13 $Y=4.3175
Ri734	vdd!#80	vdd!	   15.0867	$mt1	$X=16.9 $Y=3.07
Ri735	vdd!#107	vdd!	    0.6460	$mt1	$X=17.385 $Y=3.6175
Ri736	vdd!#107	vdd!#47	2.000e-02	$mt1
+ $X=17.6075 $Y=4.2475
Ri737	vdd!#107	vdd!#47	1.733e-02	$mt1
+ $X=17.61 $Y=4.3175
Ri738	vdd!#109	vdd!#107	1.733e-02	$mt1
+ $X=17.61 $Y=4.3175
Ri741	vdd!#80	vdd!	   15.0867	$mt1	$X=15.92 $Y=3.07
Ri743	vdd!	vdd!#115	    0.1533	$mt1	$X=15.45 $Y=2.27
Ri744	vdd!#115	vdd!	   15.1533	$mt1	$X=15.45 $Y=2.27
Ri746	vdd!	vdd!#118	    0.1533	$mt1	$X=14.61 $Y=2.27
Ri747	vdd!#118	vdd!	   15.1533	$mt1	$X=14.61 $Y=2.27
Ri751	vdd!	vdd!#124	    0.1533	$mt1	$X=13.77 $Y=2.27
Ri752	vdd!#124	vdd!	   15.1533	$mt1	$X=13.77 $Y=2.27
Ri756	vdd!	vdd!#130	    0.1533	$mt1	$X=12.93 $Y=2.27
Ri757	vdd!#130	vdd!	   15.1533	$mt1	$X=12.93 $Y=2.27
Ri759	vdd!	vdd!#133	    0.1533	$mt1	$X=12.09 $Y=2.27
Ri760	vdd!#133	vdd!	   15.1533	$mt1	$X=12.09 $Y=2.27
Ri761	vdd!#134	vdd!	8.667e-02	$mt1	$X=12.95 $Y=3.41
Ri762	vdd!#136	vdd!#134	    0.4867	$mt1
+ $X=12.89 $Y=3.875
Ri764	vdd!#80	vdd!	   15.0867	$mt1	$X=12.33 $Y=3.41
Ri766	vdd!	vdd!#140	    0.1533	$mt1	$X=11.25 $Y=2.27
Ri767	vdd!#140	vdd!	   15.1533	$mt1	$X=11.25 $Y=2.27
Ri768	vdd!#80	vdd!	   15.0867	$mt1	$X=10.78 $Y=3.07
Ri769	vdd!#141	vdd!	    0.4920	$mt1	$X=10.105 $Y=2.805
Ri770	vdd!#141	vdd!#39	2.000e-02	$mt1
+ $X=10.1045 $Y=2.2325
Ri771	vdd!#141	vdd!#39	1.733e-02	$mt1
+ $X=10.105 $Y=2.1625
Ri772	vdd!#143	vdd!#141	1.733e-02	$mt1
+ $X=10.105 $Y=2.1625
Ri775	vdd!#148	vdd!	    0.5767	$mt1	$X=9.85 $Y=3.5775
Ri777	vdd!#151	vdd!	    0.6333	$mt1	$X=8.91 $Y=3.785
Ri779	vdd!#153	vdd!	8.667e-02	$mt1	$X=8.33 $Y=3.41
Ri780	vdd!#155	vdd!#153	    0.4867	$mt1
+ $X=8.39 $Y=3.875
Ri786	vdd!#163	vdd!	8.667e-02	$mt1	$X=5.445 $Y=3.07
Ri787	vdd!#165	vdd!#163	    0.4867	$mt1
+ $X=5.385 $Y=2.605
Ri791	vdd!#170	vdd!	    0.4920	$mt1	$X=4.865 $Y=2.805
Ri792	vdd!#170	vdd!#31	2.000e-02	$mt1
+ $X=4.8645 $Y=2.2325
Ri793	vdd!#170	vdd!#31	1.733e-02	$mt1
+ $X=4.865 $Y=2.1625
Ri794	vdd!#172	vdd!#170	1.733e-02	$mt1
+ $X=4.865 $Y=2.1625
Ri797	vdd!#18	vdd!	    0.5120	$mt1	$X=3.67 $Y=3.6925
Ri798	vdd!#176	vdd!#18	1.733e-02	$mt1
+ $X=3.6695 $Y=4.3175
Ri799	vdd!#178	vdd!#176	1.733e-02	$mt1
+ $X=3.6695 $Y=4.3175
Ri800	vdd!#179	vdd!	8.667e-02	$mt1	$X=3.09 $Y=3.41
Ri801	vdd!#181	vdd!#179	    0.4867	$mt1
+ $X=3.15 $Y=3.875
Ri807	vdd!#189	vdd!	8.667e-02	$mt1	$X=0.205 $Y=3.07
Ri808	vdd!#191	vdd!#189	    0.4867	$mt1
+ $X=0.145 $Y=2.605
Ri812	vdd!#196	vdd!	8.667e-02	$mt1	$X=-1.24 $Y=3.07
Ri813	vdd!#198	vdd!#196	    0.4867	$mt1
+ $X=-1.18 $Y=2.605
Ri817	vdd!#10	vdd!	    0.5120	$mt1	$X=-1.57 $Y=3.6925
Ri818	vdd!#203	vdd!#10	1.733e-02	$mt1
+ $X=-1.5705 $Y=4.3175
Ri819	vdd!#205	vdd!#203	1.733e-02	$mt1
+ $X=-1.5705 $Y=4.3175
Ri822	vdd!#209	vdd!	    0.4958	$mt1	$X=-5.9 $Y=2.805
Ri823	vdd!#209	vdd!#2	2.000e-02	$mt1	$X=-5.9005 $Y=2.2325
Ri824	vdd!#209	vdd!#2	1.733e-02	$mt1	$X=-5.9 $Y=2.1625
Ri825	vdd!#211	vdd!#209	1.733e-02	$mt1
+ $X=-5.9 $Y=2.1625
Ri826	vdd!#213	vdd!	    0.5968	$mt1	$X=-3.21 $Y=3.665
Ri828	vdd!#80	vdd!	   15.0867	$mt1	$X=-4.34 $Y=3.41
Ri829	vdd!#216	vdd!	    0.8300	$mt1	$X=-4.78 $Y=3.9325
Ri831	vdd!#66	vdd!#65	   15.0000	$mt1
+ $X=26.83 $Y=4.29
Ri832	vdd!#70	vdd!#69	    7.5000	$mt1
+ $X=26.83 $Y=2.13
Ri834	vdd!#75	vdd!#74	    5.0000	$mt1
+ $X=25.89 $Y=4.205
Ri836	vdd!#81	vdd!#80	   15.0000	$mt1
+ $X=22.17 $Y=2.94
Ri837	vdd!#83	vdd!#82	   15.0000	$mt1
+ $X=22.11 $Y=2.15
Ri838	vdd!#85	vdd!#80	   15.0000	$mt1
+ $X=22.79 $Y=3.54
Ri839	vdd!#87	vdd!#86	   15.0000	$mt1
+ $X=22.85 $Y=4.33
Ri840	vdd!#90	vdd!#89	    5.0000	$mt1
+ $X=19.07 $Y=2.275
Ri843	vdd!#99	vdd!#98	   15.0000	$mt1
+ $X=18.13 $Y=2.19
Ri844	vdd!#103	vdd!#102	    7.5000	$mt1
+ $X=18.13 $Y=4.35
Ri846	vdd!#109	vdd!#108	    7.5000	$mt1
+ $X=17.61 $Y=4.35
Ri855	vdd!#134	vdd!#80	   15.0000	$mt1
+ $X=12.95 $Y=3.54
Ri856	vdd!#136	vdd!#135	   15.0000	$mt1
+ $X=12.89 $Y=4.33
Ri858	vdd!#143	vdd!#142	    7.5000	$mt1
+ $X=10.105 $Y=2.13
Ri860	vdd!#148	vdd!#147	    5.0000	$mt1
+ $X=9.85 $Y=4.205
Ri861	vdd!#151	vdd!#150	   15.0000	$mt1	$X=8.91 $Y=4.29
Ri862	vdd!#153	vdd!#80	   15.0000	$mt1	$X=8.33 $Y=3.54
Ri863	vdd!#155	vdd!#154	   15.0000	$mt1	$X=8.39 $Y=4.33
Ri866	vdd!#163	vdd!#80	   15.0000	$mt1
+ $X=5.445 $Y=2.94
Ri867	vdd!#165	vdd!#164	   15.0000	$mt1
+ $X=5.385 $Y=2.15
Ri869	vdd!#172	vdd!#171	    7.5000	$mt1
+ $X=4.865 $Y=2.13
Ri871	vdd!#178	vdd!#177	    7.5000	$mt1	$X=3.67 $Y=4.35
Ri872	vdd!#179	vdd!#80	   15.0000	$mt1	$X=3.09 $Y=3.54
Ri873	vdd!#181	vdd!#180	   15.0000	$mt1	$X=3.15 $Y=4.33
Ri876	vdd!#189	vdd!#80	   15.0000	$mt1
+ $X=0.205 $Y=2.94
Ri877	vdd!#191	vdd!#190	   15.0000	$mt1
+ $X=0.145 $Y=2.15
Ri879	vdd!#196	vdd!#80	   15.0000	$mt1
+ $X=-1.24 $Y=2.94
Ri880	vdd!#198	vdd!#197	   15.0000	$mt1
+ $X=-1.18 $Y=2.15
Ri882	vdd!#205	vdd!#204	    7.5000	$mt1
+ $X=-1.57 $Y=4.35
Ri884	vdd!#211	vdd!#210	    7.5000	$mt1	$X=-5.9 $Y=2.13
Ri885	vdd!#213	vdd!#212	    7.5000	$mt1
+ $X=-3.21 $Y=4.23
Ri886	vdd!#216	vdd!#215	   15.0000	$mt1
+ $X=-4.78 $Y=4.585
Ri23	CLK#2	CLK#1	   11.4000	$mt1	$X=-4.515 $Y=1.265
Ri72	CLK#7	CLK#8	1.882e-02	$mt1	$X=-1.73 $Y=1.635
Ri73	CLK#9	CLK#8	6.452e-03	$mt1	$X=-1.73 $Y=1.555
Ri74	CLK#10	CLK#7	6.452e-03	$mt1	$X=-1.73 $Y=1.635
Ri75	CLK#10	CLK#9	1.882e-02	$mt1	$X=-1.755 $Y=1.595
Ri76	CLK#12	CLK#11	6.452e-03	$mt1	$X=-1.78 $Y=1.675
Ri77	CLK#12	CLK#10	9.412e-03	$mt1	$X=-1.755 $Y=1.655
Ri104	CLK#17	CLK#16	   11.4000	$mt1	$X=-0.185 $Y=5.215
Ri124	CLK#22	CLK#23	1.882e-02	$mt1	$X=0.695 $Y=1.635
Ri125	CLK#24	CLK#23	6.452e-03	$mt1	$X=0.695 $Y=1.555
Ri126	CLK#25	CLK#22	6.452e-03	$mt1	$X=0.695 $Y=1.635
Ri127	CLK#25	CLK#24	1.882e-02	$mt1	$X=0.72 $Y=1.595
Ri128	CLK#26	CLK#27	6.452e-03	$mt1	$X=0.745 $Y=1.675
Ri129	CLK#26	CLK#25	9.412e-03	$mt1	$X=0.72 $Y=1.655
Ri166	CLK#32	CLK#31	9.412e-03	$mt1	$X=2.6 $Y=4.845
Ri167	CLK#33	CLK#31	6.452e-03	$mt1	$X=2.55 $Y=4.805
Ri168	CLK#34	CLK#32	6.452e-03	$mt1	$X=2.6 $Y=4.845
Ri169	CLK#34	CLK#33	9.412e-03	$mt1	$X=2.575 $Y=4.825
Ri170	CLK#35	CLK#36	6.452e-03	$mt1	$X=2.6 $Y=4.925
Ri171	CLK#35	CLK#34	1.882e-02	$mt1	$X=2.575 $Y=4.885
Ri228	CLK#47	CLK#46	   11.4000	$mt1	$X=5.055 $Y=5.215
Ri256	CLK#52	CLK#53	1.882e-02	$mt1	$X=5.935 $Y=1.635
Ri257	CLK#54	CLK#53	6.452e-03	$mt1	$X=5.935 $Y=1.555
Ri258	CLK#55	CLK#52	6.452e-03	$mt1	$X=5.935 $Y=1.635
Ri259	CLK#55	CLK#54	1.882e-02	$mt1	$X=5.96 $Y=1.595
Ri260	CLK#56	CLK#57	6.452e-03	$mt1	$X=5.985 $Y=1.675
Ri261	CLK#56	CLK#55	9.412e-03	$mt1	$X=5.96 $Y=1.655
Ri298	CLK#62	CLK#61	9.412e-03	$mt1	$X=7.84 $Y=4.845
Ri299	CLK#63	CLK#61	6.452e-03	$mt1	$X=7.79 $Y=4.805
Ri300	CLK#64	CLK#62	6.452e-03	$mt1	$X=7.84 $Y=4.845
Ri301	CLK#64	CLK#63	9.412e-03	$mt1	$X=7.815 $Y=4.825
Ri302	CLK#65	CLK#66	6.452e-03	$mt1	$X=7.84 $Y=4.925
Ri303	CLK#65	CLK#64	1.882e-02	$mt1	$X=7.815 $Y=4.885
Ri327	CLK#73	CLK#72	    1.4000	$mt1	$X=8.72 $Y=1.265
Ri389	CLK#79	CLK#80	9.412e-03	$mt1	$X=13.44 $Y=4.845
Ri390	CLK#81	CLK#80	6.452e-03	$mt1	$X=13.49 $Y=4.805
Ri391	CLK#82	CLK#79	6.452e-03	$mt1	$X=13.44 $Y=4.845
Ri392	CLK#82	CLK#81	9.412e-03	$mt1	$X=13.465 $Y=4.825
Ri393	CLK#84	CLK#83	6.452e-03	$mt1	$X=13.44 $Y=4.925
Ri394	CLK#84	CLK#82	1.882e-02	$mt1	$X=13.465 $Y=4.885
Ri395	CLK#76	CLK#86	    2.9375	$mt1	$X=12.133 $Y=1.4
Ri396	CLK#76	CLK	2.500e-03	$mt1	$X=11.475 $Y=1.4
Ri472	CLK#121	CLK#120	   11.4000	$mt1
+ $X=16.225 $Y=5.215
Ri536	CLK#128	CLK#127	   11.4000	$mt1
+ $X=19.515 $Y=5.215
Ri597	CLK#135	CLK#134	9.412e-03	$mt1
+ $X=22.3 $Y=4.845
Ri598	CLK#136	CLK#134	6.452e-03	$mt1
+ $X=22.25 $Y=4.805
Ri599	CLK#137	CLK#135	6.452e-03	$mt1
+ $X=22.3 $Y=4.845
Ri600	CLK#137	CLK#136	9.412e-03	$mt1
+ $X=22.275 $Y=4.825
Ri601	CLK#138	CLK#139	6.452e-03	$mt1
+ $X=22.3 $Y=4.925
Ri602	CLK#138	CLK#137	1.882e-02	$mt1
+ $X=22.275 $Y=4.885
Ri603	CLK#141	CLK#142	1.882e-02	$mt1
+ $X=22.66 $Y=1.635
Ri604	CLK#143	CLK#142	6.452e-03	$mt1
+ $X=22.66 $Y=1.555
Ri605	CLK#144	CLK#141	6.452e-03	$mt1
+ $X=22.66 $Y=1.635
Ri606	CLK#144	CLK#143	1.882e-02	$mt1
+ $X=22.685 $Y=1.595
Ri607	CLK#145	CLK#146	6.452e-03	$mt1
+ $X=22.71 $Y=1.675
Ri608	CLK#145	CLK#144	9.412e-03	$mt1
+ $X=22.685 $Y=1.655
Ri667	CLK#154	CLK#153	    1.4000	$mt1
+ $X=25.445 $Y=1.265
Ri5	Set#2	Set	    0.3436	$mt1	$X=-6.065 $Y=1.4
Ri86	Set#11	Set#9	    0.3089	$mt1	$X=-1.8225 $Y=5.1
Ri199	Set#19	Set#21	    1.7013	$mt1	$X=3.3525 $Y=4.8
Ri235	Set#26	Set#31	    1.7013	$mt1	$X=5 $Y=1.56
Ri360	Set#36	Set#41	    1.7013	$mt1	$X=10.24 $Y=1.56
Ri487	Set#50	Set#49	    5.1831	$mt1	$X=16.64 $Y=1.4
Ri488	Set#50	Set#48	    0.2181	$mt1	$X=16.303 $Y=1.4
Ri507	Set#64	Set#62	7.928e-02	$mt1	$X=18.17 $Y=5.01
Ri508	Set#64	Set#57	7.928e-02	$mt1	$X=17.765 $Y=5.01
Ri510	Set#64	Set#61	    0.8528	$mt1	$X=17.87 $Y=4.265
Ri888	Set#74	Set#69	    1.7596	$mt1	$X=26.995 $Y=1.4
Ri40	avC7#5	avC7	    1.4000	$mt1	$X=-3.605 $Y=1.68
Ri78	avC7#7	avC7#6	8.163e-03	$mt1	$X=-1.78 $Y=1.19
Ri80	avC7#9	avC7#10	8.163e-03	$mt1	$X=-1.73 $Y=1.245
Ri81	avC7#9	avC7#7	1.294e-02	$mt1	$X=-1.755 $Y=1.2175
Ri131	avC7#17	avC7#18	8.163e-03	$mt1
+ $X=0.745 $Y=1.19
Ri132	avC7#20	avC7#19	8.163e-03	$mt1
+ $X=0.695 $Y=1.245
Ri133	avC7#20	avC7#17	1.294e-02	$mt1
+ $X=0.72 $Y=1.2175
Ri134	avC7#22	avC7#21	   11.4000	$mt1	$X=0.725 $Y=4.8
Ri161	avC7#34	avC7#35	1.118e-02	$mt1
+ $X=2.6 $Y=5.2825
Ri162	avC7#36	avC7#35	8.163e-03	$mt1	$X=2.6 $Y=5.235
Ri163	avC7#37	avC7#33	8.163e-03	$mt1	$X=2.55 $Y=5.29
Ri164	avC7#37	avC7#34	8.163e-03	$mt1
+ $X=2.6 $Y=5.2825
Ri165	avC7#37	avC7#36	1.118e-02	$mt1
+ $X=2.575 $Y=5.2585
Ri172	avC7#31	avC7#38	   11.4000	$mt1	$X=2.57 $Y=1.68
Ri263	avC7#47	avC7#48	8.163e-03	$mt1
+ $X=5.985 $Y=1.19
Ri264	avC7#50	avC7#49	8.163e-03	$mt1
+ $X=5.935 $Y=1.245
Ri265	avC7#50	avC7#47	1.294e-02	$mt1
+ $X=5.96 $Y=1.2175
Ri266	avC7#52	avC7#51	   11.4000	$mt1	$X=5.965 $Y=4.8
Ri293	avC7#64	avC7#65	1.118e-02	$mt1
+ $X=7.84 $Y=5.2825
Ri294	avC7#66	avC7#65	8.163e-03	$mt1
+ $X=7.84 $Y=5.235
Ri295	avC7#67	avC7#63	8.163e-03	$mt1	$X=7.79 $Y=5.29
Ri296	avC7#67	avC7#64	8.163e-03	$mt1
+ $X=7.84 $Y=5.2825
Ri297	avC7#67	avC7#66	1.118e-02	$mt1
+ $X=7.815 $Y=5.2585
Ri304	avC7#61	avC7#68	   11.4000	$mt1	$X=7.81 $Y=1.68
Ri384	avC7#76	avC7#77	1.118e-02	$mt1
+ $X=13.44 $Y=5.2825
Ri385	avC7#78	avC7#77	8.163e-03	$mt1
+ $X=13.44 $Y=5.235
Ri386	avC7#79	avC7#76	8.163e-03	$mt1
+ $X=13.44 $Y=5.2825
Ri387	avC7#79	avC7#80	8.163e-03	$mt1
+ $X=13.49 $Y=5.29
Ri388	avC7#79	avC7#78	1.118e-02	$mt1
+ $X=13.465 $Y=5.2585
Ri409	avC7#89	avC7#85	    0.2203	$mt1
+ $X=15.03 $Y=1.2325
Ri410	avC7#90	avC7#89	    0.2236	$mt1
+ $X=15.03 $Y=1.5695
Ri412	avC7#90	avC7#93	    0.1533	$mt1
+ $X=15.03 $Y=2.27
Ri413	avC7#93	avC7#94	4.267e-02	$mt1
+ $X=15.03 $Y=2.27
Ri414	avC7#90	avC7#94	   15.0800	$mt1
+ $X=15.03 $Y=2.4545
Ri422	avC7#90	avC7#104	    0.1533	$mt1
+ $X=11.67 $Y=2.27
Ri423	avC7#104	avC7#90	   15.1533	$mt1
+ $X=11.67 $Y=2.27
Ri428	avC7#90	avC7#111	    0.1533	$mt1
+ $X=14.19 $Y=2.27
Ri429	avC7#111	avC7#90	   15.1533	$mt1
+ $X=14.19 $Y=2.27
Ri431	avC7#90	avC7#114	    0.1533	$mt1
+ $X=13.35 $Y=2.27
Ri432	avC7#114	avC7#90	   15.1533	$mt1
+ $X=13.35 $Y=2.27
Ri434	avC7#90	avC7#117	    0.1533	$mt1
+ $X=12.51 $Y=2.27
Ri435	avC7#117	avC7#90	   15.1533	$mt1
+ $X=12.51 $Y=2.27
Ri451	avC7#126	avC7#127	   11.4000	$mt1
+ $X=15.315 $Y=4.8
Ri563	avC7#134	avC7#133	   11.4000	$mt1
+ $X=20.425 $Y=4.8
Ri592	avC7#140	avC7#141	1.118e-02	$mt1
+ $X=22.3 $Y=5.2825
Ri593	avC7#142	avC7#141	8.163e-03	$mt1
+ $X=22.3 $Y=5.235
Ri594	avC7#143	avC7#139	8.163e-03	$mt1
+ $X=22.25 $Y=5.29
Ri595	avC7#143	avC7#140	8.163e-03	$mt1
+ $X=22.3 $Y=5.2825
Ri596	avC7#143	avC7#142	1.118e-02	$mt1
+ $X=22.275 $Y=5.2585
Ri610	avC7#149	avC7#150	8.163e-03	$mt1
+ $X=22.71 $Y=1.19
Ri611	avC7#152	avC7#151	8.163e-03	$mt1
+ $X=22.66 $Y=1.245
Ri612	avC7#152	avC7#149	1.294e-02	$mt1
+ $X=22.685 $Y=1.2175
Ri636	avC7#154	avC7#159	   11.4000	$mt1
+ $X=24.535 $Y=1.68
Ri19	avC6	avC6#3	    0.9632	$mt1	$X=-4.805 $Y=2.18
Ri102	avC6#9	avC6#10	    0.7908	$mt1	$X=-0.46 $Y=4.3175
Ri217	avC6#19	avC6#21	    1.2140	$mt1
+ $X=4.035 $Y=2.835
Ri224	avC6#29	avC6#24	    2.2328	$mt1
+ $X=4.78 $Y=4.3175
Ri339	avC6#38	avC6#33	    0.8018	$mt1
+ $X=8.995 $Y=2.13
Ri482	avC6#44	avC6#41	    0.9980	$mt1
+ $X=16.64 $Y=4.99
Ri483	avC6#50	avC6#49	   15.0000	$mt1	$X=16.9 $Y=1.93
Ri484	avC6#50	avC6#51	    1.4000	$mt1	$X=16.9 $Y=1.93
Ri485	avC6#53	avC6#52	   15.0000	$mt1
+ $X=16.9 $Y=0.975
Ri486	avC6#53	avC6#54	    1.4000	$mt1
+ $X=16.9 $Y=0.975
Ri532	avC6#66	avC6#61	    1.0072	$mt1
+ $X=19.25 $Y=4.225
Ri682	avC6#73	avC6#70	    0.8409	$mt1	$X=25.72 $Y=2.2
Ri499	I200/avC10#3	I200/avC10	    1.4256	$mt1
+ $X=18.13 $Y=5.735
Ri501	I200/avC10#3	I200/avC10#2	   15.0000	$mt1
+ $X=18.13 $Y=5.69
Ri522	I200/avC10#8	I200/avC10#7	    0.1093	$mt1
+ $X=18.97 $Y=4.35
Ri524	I200/avC10#8	I200/avC10#11	9.333e-02	$mt1
+ $X=18.96 $Y=4.35
Ri525	I200/avC10#8	I200/avC10#9	    7.5000	$mt1
+ $X=18.97 $Y=4.35
Ri546	I200/avC10#13	I200/avC10#15	    0.4367	$mt1
+ $X=19.91 $Y=5.333
Ri547	I200/avC10#15	I200/avC10#16	    0.6200	$mt1
+ $X=19.91 $Y=4.8135
Ri548	I200/avC10#16	I200/avC10#17	2.615e-02	$mt1
+ $X=19.91 $Y=4.15
Ri550	I200/avC10#13	I200/avC10#12	   15.0000	$mt1
+ $X=19.91 $Y=5.735
Ri551	I200/avC10#16	I200/avC10#18	    5.0000	$mt1
+ $X=19.91 $Y=4.15
Ri553	I200/I0/avC9	I200/I0/avC9#7	2.667e-03	$mt1
+ $X=20.3425 $Y=4.145
Ri574	I200/I0/avC9#10	I200/I0/avC9#11	2.667e-03	$mt1
+ $X=21.2575 $Y=4.145
Ri576	I200/I0/avC9#10	I200/I0/avC9#12	    5.0000	$mt1
+ $X=21.27 $Y=4.15
Ri582	I200/I0/avC7#9	I200/I0/avC7#7	    0.5283	$mt1
+ $X=22.07 $Y=4.51
Ri583	I200/I0/avC7#9	I200/I0/avC7	    5.4073	$mt1
+ $X=21.67 $Y=5.08
Ri584	I200/I0/avC7#11	I200/I0/avC7#9	    0.4750	$mt1
+ $X=21.93 $Y=5.3325
Ri586	I200/I0/avC7#7	I200/I0/avC7#6	   15.0000	$mt1
+ $X=22.21 $Y=4.33
Ri587	I200/I0/avC7#11	I200/I0/avC7#10	   15.0000	$mt1
+ $X=22.21 $Y=5.645
Ri463	I198/avC10#2	I198/avC10#4	    0.4367	$mt1
+ $X=15.83 $Y=5.333
Ri464	I198/avC10#4	I198/avC10#5	    0.6200	$mt1
+ $X=15.83 $Y=4.8135
Ri465	I198/avC10#5	I198/avC10#6	2.615e-02	$mt1
+ $X=15.83 $Y=4.15
Ri467	I198/avC10#2	I198/avC10	   15.0000	$mt1
+ $X=15.83 $Y=5.735
Ri468	I198/avC10#5	I198/avC10#7	    5.0000	$mt1
+ $X=15.83 $Y=4.15
Ri475	I198/avC10#10	I198/avC10#9	    0.1093	$mt1
+ $X=16.77 $Y=4.35
Ri477	I198/avC10#10	I198/avC10#13	9.333e-02	$mt1
+ $X=16.78 $Y=4.35
Ri478	I198/avC10#10	I198/avC10#11	    7.5000	$mt1
+ $X=16.77 $Y=4.35
Ri496	I198/avC10#17	I198/avC10#16	   15.0000	$mt1
+ $X=17.61 $Y=5.69
Ri497	I198/avC10#17	I198/avC10#18	    1.4256	$mt1
+ $X=17.61 $Y=5.69
Ri397	I198/I0/avC9	I198/I0/avC9#2	2.667e-03	$mt1
+ $X=14.4825 $Y=4.145
Ri399	I198/I0/avC9	I198/I0/avC9#3	    5.0000	$mt1
+ $X=14.47 $Y=4.15
Ri453	I198/I0/avC9#5	I198/I0/avC9#7	2.667e-03	$mt1
+ $X=15.3975 $Y=4.145
Ri400	I198/I0/avC7#6	I198/I0/avC7	    5.4073	$mt1
+ $X=14.0705 $Y=5.08
Ri401	I198/I0/avC7#6	I198/I0/avC7#7	    0.5283	$mt1
+ $X=13.81 $Y=4.795
Ri402	I198/I0/avC7#9	I198/I0/avC7#6	    0.4750	$mt1
+ $X=13.81 $Y=5.3325
Ri405	I198/I0/avC7#9	I198/I0/avC7#8	   15.0000	$mt1
+ $X=13.53 $Y=5.645
Ri406	I198/I0/avC7#7	I198/I0/avC7#11	   15.0000	$mt1
+ $X=13.53 $Y=4.33
Ri196	I201/avC10#3	I201/avC10	    1.4256	$mt1
+ $X=3.67 $Y=5.735
Ri198	I201/avC10#3	I201/avC10#2	   15.0000	$mt1	$X=3.67 $Y=5.69
Ri218	I201/avC10#8	I201/avC10#7	    0.1093	$mt1	$X=4.51 $Y=4.35
Ri220	I201/avC10#8	I201/avC10#11	9.333e-02	$mt1	$X=4.5 $Y=4.35
Ri221	I201/avC10#8	I201/avC10#9	    7.5000	$mt1	$X=4.51 $Y=4.35
Ri237	I201/avC10#13	I201/avC10#15	    0.4367	$mt1
+ $X=5.45 $Y=5.333
Ri238	I201/avC10#15	I201/avC10#16	    0.6200	$mt1
+ $X=5.45 $Y=4.8135
Ri239	I201/avC10#16	I201/avC10#17	2.615e-02	$mt1	$X=5.45 $Y=4.15
Ri241	I201/avC10#13	I201/avC10#12	   15.0000	$mt1
+ $X=5.45 $Y=5.735
Ri242	I201/avC10#16	I201/avC10#18	    5.0000	$mt1	$X=5.45 $Y=4.15
Ri253	I201/I0/avC9	I201/I0/avC9#7	2.667e-03	$mt1
+ $X=5.8825 $Y=4.145
Ri273	I201/I0/avC9#10	I201/I0/avC9#11	2.667e-03	$mt1
+ $X=6.7975 $Y=4.145
Ri275	I201/I0/avC9#10	I201/I0/avC9#12	    5.0000	$mt1
+ $X=6.81 $Y=4.15
Ri287	I201/I0/avC7#9	I201/I0/avC7#7	    0.5283	$mt1	$X=7.61 $Y=4.51
Ri288	I201/I0/avC7#9	I201/I0/avC7	    5.4073	$mt1	$X=7.21 $Y=5.08
Ri289	I201/I0/avC7#11	I201/I0/avC7#9	    0.4750	$mt1
+ $X=7.47 $Y=5.3325
Ri291	I201/I0/avC7#7	I201/I0/avC7#6	   15.0000	$mt1	$X=7.75 $Y=4.33
Ri292	I201/I0/avC7#11	I201/I0/avC7#10	   15.0000	$mt1
+ $X=7.75 $Y=5.645
Ri82	I202/avC10#3	I202/avC10	    1.4256	$mt1
+ $X=-1.57 $Y=5.735
Ri84	I202/avC10#3	I202/avC10#2	   15.0000	$mt1
+ $X=-1.57 $Y=5.69
Ri96	I202/avC10#8	I202/avC10#7	    0.1093	$mt1
+ $X=-0.73 $Y=4.35
Ri98	I202/avC10#8	I202/avC10#11	9.333e-02	$mt1
+ $X=-0.74 $Y=4.35
Ri99	I202/avC10#8	I202/avC10#9	    7.5000	$mt1
+ $X=-0.73 $Y=4.35
Ri111	I202/avC10#13	I202/avC10#15	    0.4367	$mt1
+ $X=0.21 $Y=5.333
Ri112	I202/avC10#15	I202/avC10#16	    0.6200	$mt1
+ $X=0.21 $Y=4.8135
Ri113	I202/avC10#16	I202/avC10#17	2.615e-02	$mt1	$X=0.21 $Y=4.15
Ri115	I202/avC10#13	I202/avC10#12	   15.0000	$mt1
+ $X=0.21 $Y=5.735
Ri116	I202/avC10#16	I202/avC10#18	    5.0000	$mt1	$X=0.21 $Y=4.15
Ri121	I202/I0/avC9	I202/I0/avC9#7	2.667e-03	$mt1
+ $X=0.6425 $Y=4.145
Ri141	I202/I0/avC9#10	I202/I0/avC9#11	2.667e-03	$mt1
+ $X=1.5575 $Y=4.145
Ri143	I202/I0/avC9#10	I202/I0/avC9#12	    5.0000	$mt1
+ $X=1.57 $Y=4.15
Ri155	I202/I0/avC7#9	I202/I0/avC7#7	    0.5283	$mt1	$X=2.37 $Y=4.51
Ri156	I202/I0/avC7#9	I202/I0/avC7	    5.4073	$mt1	$X=1.97 $Y=5.08
Ri157	I202/I0/avC7#11	I202/I0/avC7#9	    0.4750	$mt1
+ $X=2.23 $Y=5.3325
Ri159	I202/I0/avC7#7	I202/I0/avC7#6	   15.0000	$mt1	$X=2.51 $Y=4.33
Ri160	I202/I0/avC7#11	I202/I0/avC7#10	   15.0000	$mt1
+ $X=2.51 $Y=5.645
Ri650	I199/avC10	I199/avC10#2	2.615e-02	$mt1
+ $X=25.05 $Y=2.317
Ri652	I199/avC10	I199/avC10#5	    0.6200	$mt1
+ $X=25.05 $Y=1.6855
Ri653	I199/avC10#7	I199/avC10#5	    0.4367	$mt1
+ $X=25.05 $Y=1.148
Ri655	I199/avC10	I199/avC10#3	    5.0000	$mt1
+ $X=25.05 $Y=2.33
Ri656	I199/avC10#7	I199/avC10#6	   15.0000	$mt1
+ $X=25.05 $Y=0.745
Ri675	I199/avC10#10	I199/avC10#9	    0.1093	$mt1
+ $X=25.99 $Y=2.13
Ri677	I199/avC10#10	I199/avC10#13	    1.4933	$mt1	$X=26 $Y=2.2225
Ri678	I199/avC10#10	I199/avC10#11	    7.5000	$mt1
+ $X=25.99 $Y=2.13
Ri698	I199/avC10#17	I199/avC10#16	   15.0000	$mt1
+ $X=26.83 $Y=0.79
Ri699	I199/avC10#17	I199/avC10#18	    1.4256	$mt1
+ $X=26.83 $Y=0.79
Ri619	I199/I0/avC9	I199/I0/avC9#4	2.667e-03	$mt1
+ $X=23.7025 $Y=2.33
Ri620	I199/I0/avC9	I199/I0/avC9#2	    5.0000	$mt1
+ $X=23.69 $Y=2.33
Ri638	I199/I0/avC9#5	I199/I0/avC9#8	2.667e-03	$mt1
+ $X=24.6175 $Y=2.33
Ri621	I199/I0/avC7#2	I199/I0/avC7	    5.4073	$mt1
+ $X=23.2905 $Y=1.4
Ri622	I199/I0/avC7#2	I199/I0/avC7#3	    0.5283	$mt1
+ $X=23.03 $Y=1.685
Ri624	I199/I0/avC7#7	I199/I0/avC7#2	    0.4750	$mt1
+ $X=23.03 $Y=1.1475
Ri626	I199/I0/avC7#3	I199/I0/avC7#4	   15.0000	$mt1
+ $X=22.75 $Y=2.15
Ri627	I199/I0/avC7#7	I199/I0/avC7#6	   15.0000	$mt1
+ $X=22.75 $Y=0.835
Ri315	I197/avC10	I197/avC10#2	2.615e-02	$mt1
+ $X=8.325 $Y=2.317
Ri317	I197/avC10	I197/avC10#5	    0.6200	$mt1
+ $X=8.325 $Y=1.6855
Ri318	I197/avC10#7	I197/avC10#5	    0.4367	$mt1
+ $X=8.325 $Y=1.148
Ri320	I197/avC10	I197/avC10#3	    5.0000	$mt1
+ $X=8.325 $Y=2.33
Ri321	I197/avC10#7	I197/avC10#6	   15.0000	$mt1
+ $X=8.325 $Y=0.745
Ri332	I197/avC10#10	I197/avC10#9	    0.1093	$mt1
+ $X=9.265 $Y=2.13
Ri334	I197/avC10#10	I197/avC10#13	    1.4933	$mt1
+ $X=9.275 $Y=2.2225
Ri335	I197/avC10#10	I197/avC10#11	    7.5000	$mt1
+ $X=9.265 $Y=2.13
Ri355	I197/avC10#17	I197/avC10#16	   15.0000	$mt1
+ $X=10.105 $Y=0.79
Ri356	I197/avC10#17	I197/avC10#18	    1.4256	$mt1
+ $X=10.105 $Y=0.79
Ri277	I197/I0/avC9	I197/I0/avC9#4	2.667e-03	$mt1
+ $X=6.9775 $Y=2.33
Ri278	I197/I0/avC9	I197/I0/avC9#2	    5.0000	$mt1
+ $X=6.965 $Y=2.33
Ri306	I197/I0/avC9#5	I197/I0/avC9#8	2.667e-03	$mt1
+ $X=7.8925 $Y=2.33
Ri279	I197/I0/avC7#2	I197/I0/avC7	    5.4073	$mt1
+ $X=6.5655 $Y=1.4
Ri280	I197/I0/avC7#2	I197/I0/avC7#3	    0.5283	$mt1
+ $X=6.305 $Y=1.685
Ri282	I197/I0/avC7#7	I197/I0/avC7#2	    0.4750	$mt1
+ $X=6.305 $Y=1.1475
Ri284	I197/I0/avC7#3	I197/I0/avC7#4	   15.0000	$mt1
+ $X=6.025 $Y=2.15
Ri285	I197/I0/avC7#7	I197/I0/avC7#6	   15.0000	$mt1
+ $X=6.025 $Y=0.835
Ri183	I196/avC10	I196/avC10#2	2.615e-02	$mt1
+ $X=3.085 $Y=2.317
Ri185	I196/avC10	I196/avC10#5	    0.6200	$mt1
+ $X=3.085 $Y=1.6855
Ri186	I196/avC10#7	I196/avC10#5	    0.4367	$mt1
+ $X=3.085 $Y=1.148
Ri188	I196/avC10	I196/avC10#3	    5.0000	$mt1
+ $X=3.085 $Y=2.33
Ri189	I196/avC10#7	I196/avC10#6	   15.0000	$mt1
+ $X=3.085 $Y=0.745
Ri201	I196/avC10#10	I196/avC10#9	    0.1093	$mt1
+ $X=4.025 $Y=2.13
Ri203	I196/avC10#10	I196/avC10#13	    1.4933	$mt1
+ $X=4.035 $Y=2.2225
Ri204	I196/avC10#10	I196/avC10#11	    7.5000	$mt1
+ $X=4.025 $Y=2.13
Ri226	I196/avC10#17	I196/avC10#16	   15.0000	$mt1
+ $X=4.865 $Y=0.79
Ri227	I196/avC10#17	I196/avC10#18	    1.4256	$mt1
+ $X=4.865 $Y=0.79
Ri145	I196/I0/avC9	I196/I0/avC9#4	2.667e-03	$mt1
+ $X=1.7375 $Y=2.33
Ri146	I196/I0/avC9	I196/I0/avC9#2	    5.0000	$mt1
+ $X=1.725 $Y=2.33
Ri174	I196/I0/avC9#5	I196/I0/avC9#8	2.667e-03	$mt1
+ $X=2.6525 $Y=2.33
Ri147	I196/I0/avC7#2	I196/I0/avC7	    5.4073	$mt1
+ $X=1.3255 $Y=1.4
Ri148	I196/I0/avC7#2	I196/I0/avC7#3	    0.5283	$mt1
+ $X=1.065 $Y=1.685
Ri150	I196/I0/avC7#7	I196/I0/avC7#2	    0.4750	$mt1
+ $X=1.065 $Y=1.1475
Ri152	I196/I0/avC7#3	I196/I0/avC7#4	   15.0000	$mt1
+ $X=0.785 $Y=2.15
Ri153	I196/I0/avC7#7	I196/I0/avC7#6	   15.0000	$mt1
+ $X=0.785 $Y=0.835
Ri1	I203/avC10#2	I203/avC10	   15.0000	$mt1	$X=-5.9 $Y=0.79
Ri2	I203/avC10#2	I203/avC10#3	    1.4256	$mt1	$X=-5.9 $Y=0.79
Ri13	I203/avC10#7	I203/avC10#6	    0.1093	$mt1
+ $X=-5.06 $Y=2.13
Ri15	I203/avC10#7	I203/avC10#10	9.333e-02	$mt1
+ $X=-5.07 $Y=2.13
Ri16	I203/avC10#7	I203/avC10#8	    7.5000	$mt1
+ $X=-5.06 $Y=2.13
Ri29	I203/avC10#11	I203/avC10#12	2.615e-02	$mt1
+ $X=-4.12 $Y=2.317
Ri31	I203/avC10#11	I203/avC10#15	    0.6200	$mt1
+ $X=-4.12 $Y=1.6855
Ri32	I203/avC10#17	I203/avC10#15	    0.4367	$mt1
+ $X=-4.12 $Y=1.148
Ri34	I203/avC10#11	I203/avC10#13	    5.0000	$mt1
+ $X=-4.12 $Y=2.33
Ri35	I203/avC10#17	I203/avC10#16	   15.0000	$mt1
+ $X=-4.12 $Y=0.745
Ri37	I203/I0/avC9	I203/I0/avC9#8	2.667e-03	$mt1
+ $X=-3.6875 $Y=2.33
Ri57	I203/I0/avC9#10	I203/I0/avC9#13	2.667e-03	$mt1
+ $X=-2.7725 $Y=2.33
Ri58	I203/I0/avC9#10	I203/I0/avC9#11	    5.0000	$mt1
+ $X=-2.76 $Y=2.33
Ri66	I203/I0/avC7#9	I203/I0/avC7#7	    0.5283	$mt1
+ $X=-1.96 $Y=1.97
Ri67	I203/I0/avC7#9	I203/I0/avC7	    5.4073	$mt1	$X=-2.36 $Y=1.4
Ri68	I203/I0/avC7#11	I203/I0/avC7#9	    0.4750	$mt1
+ $X=-2.1 $Y=1.1475
Ri70	I203/I0/avC7#7	I203/I0/avC7#6	   15.0000	$mt1
+ $X=-1.82 $Y=2.15
Ri71	I203/I0/avC7#11	I203/I0/avC7#10	   15.0000	$mt1
+ $X=-1.82 $Y=0.835
Rj34	8_B0#14	8_B0#15	   50.0688	$poly
+ $X=0.355 $Y=1.7055
Rj35	8_B0#15	8_B0	   11.0694	$poly	$X=0.355 $Y=1.4
Rj36	8_B0#15	8_B0#16	   43.5688	$poly
+ $X=0.355 $Y=1.1275
Rj109	8_B0#23	8_B0#24	   98.4119	$poly
+ $X=9.64 $Y=4.943
Rj110	8_B0#24	8_B0#21	   16.3706	$poly
+ $X=9.0575 $Y=4.825
Rj111	8_B0#24	8_B0#25	   34.0931	$poly
+ $X=9.12 $Y=4.5675
Rj188	8_B0#33	8_B0#34	   98.4119	$poly
+ $X=18.86 $Y=1.537
Rj189	8_B0#34	8_B0#28	   16.3706	$poly
+ $X=18.2775 $Y=1.655
Rj190	8_B0#34	8_B0#35	   34.0931	$poly
+ $X=18.34 $Y=1.9125
Rj250	8_B0#43	8_B0#44	   34.0931	$poly
+ $X=26.62 $Y=4.567
Rj251	8_B0#44	8_B0#45	   98.4119	$poly
+ $X=26.36 $Y=4.875
Rj252	8_B0#44	8_B0#40	    6.3706	$poly
+ $X=26.6825 $Y=4.825
Rj28	avC8	avC8#2	   11.0694	$poly	$X=-1.265 $Y=1.4
Rj29	avC8#2	avC8#3	   43.5688	$poly	$X=-1.39 $Y=1.1275
Rj30	avC8#2	avC8#4	   50.0688	$poly	$X=-1.39 $Y=1.705
Rj7	avC11#14	avC11#15	   50.0688	$poly
+ $X=-4.57 $Y=5.3855
Rj8	avC11#15	avC11#12	   11.0694	$poly
+ $X=-4.57 $Y=5.08
Rj9	avC11#15	avC11#16	   36.5688	$poly
+ $X=-4.57 $Y=4.8425
Rj76	avC13#11	avC13#12	   50.0688	$poly
+ $X=5.595 $Y=1.7055
Rj77	avC13#12	avC13#9	   11.0694	$poly	$X=5.595 $Y=1.4
Rj78	avC13#12	avC13#13	   43.5688	$poly
+ $X=5.595 $Y=1.1275
Rj115	avC10#14	avC10#15	  122.4997	$poly
+ $X=10.6755 $Y=5.04
Rj116	avC10#15	avC10#12	    2.9576	$poly
+ $X=10.06 $Y=5.045
Rj117	avC10#15	avC10#16	   37.5044	$poly	$X=10.06 $Y=4.8
Rj118	avC10#15	avC10#17	   32.0044	$poly
+ $X=10.06 $Y=5.2625
Rj214	avC17#14	avC17#15	   50.0688	$poly
+ $X=22.32 $Y=1.7055
Rj215	avC17#15	avC17#16	   11.0694	$poly	$X=22.32 $Y=1.4
Rj216	avC17#15	avC17#17	   43.5688	$poly
+ $X=22.32 $Y=1.1275
Rj237	avC19	avC19#2	   32.0044	$poly	$X=25.68 $Y=5.263
Rj238	avC19#2	avC19#3	  122.4997	$poly
+ $X=25.21 $Y=5.04
Rj239	avC19#2	avC19#4	   37.5044	$poly	$X=25.68 $Y=4.8
Rj240	avC19#2	avC19#5	   12.9576	$poly
+ $X=25.68 $Y=5.045
Rj55	avC12	avC12#2	   11.0694	$poly	$X=3.065 $Y=5.08
Rj56	avC12#2	avC12#3	   50.0688	$poly
+ $X=2.94 $Y=4.775
Rj57	avC12#2	avC12#4	   43.5688	$poly
+ $X=2.94 $Y=5.3525
Rj97	avC14	avC14#2	   11.0694	$poly	$X=8.305 $Y=5.08
Rj98	avC14#2	avC14#3	   50.0688	$poly
+ $X=8.18 $Y=4.775
Rj99	avC14#2	avC14#4	   43.5688	$poly
+ $X=8.18 $Y=5.3525
Rj125	avC15#13	avC15#14	   43.5688	$poly
+ $X=13.1 $Y=5.353
Rj126	avC15#14	avC15#15	   11.0694	$poly	$X=13.1 $Y=5.08
Rj127	avC15#14	avC15#16	   50.0688	$poly
+ $X=13.1 $Y=4.775
Rj197	avC16#16	avC16#17	  122.4997	$poly
+ $X=19.8955 $Y=1.44
Rj198	avC16#17	avC16#15	    2.9576	$poly
+ $X=19.28 $Y=1.435
Rj199	avC16#17	avC16#18	   32.0044	$poly
+ $X=19.28 $Y=1.2175
Rj200	avC16#17	avC16#19	   37.5044	$poly
+ $X=19.28 $Y=1.68
Rj221	avC18	avC18#2	   11.0694	$poly	$X=22.765 $Y=5.08
Rj222	avC18#2	avC18#3	   50.0688	$poly
+ $X=22.64 $Y=4.775
Rj223	avC18#2	avC18#4	   43.5688	$poly
+ $X=22.64 $Y=5.3525
Rj16	avC9#10	avC9#11	   39.0688	$poly	$X=-3 $Y=5.2455
Rj17	avC9#11	avC9#2	   16.0694	$poly	$X=-3.0875 $Y=4.995
Rj18	avC9#11	avC9	   45.5688	$poly	$X=-3 $Y=4.7125
Rj224	I206/avC7	I206/avC7#2	   36.6026	$poly
+ $X=23.58 $Y=5.263
Rj244	I206/avC7#12	I206/avC7#13	  127.4076	$poly
+ $X=25.79 $Y=3.405
Rj245	I206/avC7#13	I206/avC7#6	   84.6387	$poly
+ $X=24.66 $Y=3.4325
Rj246	I206/avC7#13	I206/avC7#14	   26.4473	$poly
+ $X=25.26 $Y=3.6325
Rj229	I206/avC6	I206/avC6#2	  106.1308	$poly
+ $X=24.19 $Y=4.01
Rj230	I206/avC6#2	I206/avC6#3	   90.0000	$poly
+ $X=23.8 $Y=4.9295
Rj119	I204/avC7#11	I204/avC7#12	   94.6387	$poly
+ $X=11.08 $Y=3.4325
Rj120	I204/avC7#12	I204/avC7	  117.4077	$poly
+ $X=9.95 $Y=3.405
Rj121	I204/avC7#12	I204/avC7#13	   26.4473	$poly
+ $X=10.48 $Y=3.6325
Rj124	I204/avC7#18	I204/avC7#17	   26.6026	$poly
+ $X=12.16 $Y=5.263
Rj122	I204/avC6#9	I204/avC6#10	   90.0000	$poly
+ $X=11.94 $Y=4.9305
Rj123	I204/avC6#10	I204/avC6#8	   96.1308	$poly
+ $X=11.6305 $Y=4.01
Rj204	I205/avC7#11	I205/avC7#12	   94.6387	$poly
+ $X=20.3 $Y=3.0475
[...]
C6097	I203/I0/avC9#8	gnd!	2.49148e-18	$X=-3.5115 $Y=2.2015
C6098	avC7#5	gnd!	6.10759e-18	$X=-3.4825 $Y=1.502
C6099	I203/I0/avC9#13	gnd!	3.59036e-18	$X=-2.838 $Y=2.1935
C6100	8_B0#4	gnd!	3.20502e-18	$X=-2.756 $Y=4.089
C6101	Set#9	gnd!	2.13784e-18	$X=-2.08 $Y=5.082
C6102	avC7#10	gnd!	2.94746e-18	$X=-1.7565 $Y=1.2425
C6103	I202/avC10	gnd!	3.62805e-18	$X=-1.605 $Y=5.541
C6104	avC8#13	gnd!	1.82633e-18	$X=-1.182 $Y=1.4085
C6105	I202/avC10#11	gnd!	8.67762e-19	$X=-0.7165 $Y=4.0905
C6106	I202/avC10#7	gnd!	8.91763e-19	$X=-0.7675 $Y=4.475
C6107	vdd!#15	gnd!	4.06099e-19	$X=-0.8225 $Y=5.4345
C6108	avC6#9	gnd!	1.82778e-18	$X=-0.616 $Y=3.591
C6109	8_B0#12	gnd!	3.72817e-18	$X=-0.5515 $Y=1.6825
C6110	CLK#17	gnd!	7.14379e-19	$X=-0.2735 $Y=5.056
C6111	I202/avC10#17	gnd!	1.52046e-18	$X=-0.1415 $Y=3.985
C6112	I202/I0/avC9#7	gnd!	3.33e-18	$X=0.458 $Y=3.8465
C6113	CLK#23	gnd!	1.41171e-18	$X=0.6095 $Y=1.5305
C6114	avC7#22	gnd!	1.79734e-18	$X=0.5135 $Y=4.5745
C6115	I202/I0/avC9#11	gnd!	4.57594e-18	$X=1.1365 $Y=3.8575
C6116	I196/I0/avC9#4	gnd!	2.98456e-18	$X=1.4665 $Y=2.1935
C6117	I196/I0/avC8	gnd!	1.2326e-17	$X=0.7375 $Y=0.6985
C6118	avC7#31	gnd!	1.92303e-18	$X=2.1365 $Y=1.501
C6119	CLK#36	gnd!	1.96148e-18	$X=2.4035 $Y=4.77
C6120	avC7#35	gnd!	1.10655e-18	$X=2.567 $Y=5.1595
C6121	I196/I0/avC9#8	gnd!	2.39571e-18	$X=2.1335 $Y=2.202
C6122	I196/avC10#2	gnd!	1.06368e-18	$X=2.931 $Y=2.0285
C6123	Set#19	gnd!	1.45187e-18	$X=3.281 $Y=4.7615
C6124	CLK#40	gnd!	9.17644e-19	$X=3.258 $Y=1.2315
C6125	I201/avC10	gnd!	8.37456e-19	$X=3.426 $Y=5.541
C6126	vdd!#21	gnd!	6.00368e-19	$X=3.854 $Y=0.785
C6127	I196/avC10#9	gnd!	9.77837e-19	$X=3.7705 $Y=1.912
C6128	I196/avC10#13	gnd!	1.37147e-18	$X=3.6495 $Y=2.219
C6129	avC6#21	gnd!	6.71038e-19	$X=3.696 $Y=2.669
C6130	I201/avC10#11	gnd!	1.17375e-18	$X=4.2245 $Y=4.0905
C6131	I201/avC10#7	gnd!	7.31413e-19	$X=4.3665 $Y=4.475
C6132	vdd!#26	gnd!	4.34947e-19	$X=4.3265 $Y=5.5585
C6133	avC6#29	gnd!	2.09684e-19	$X=4.467 $Y=3.813
C6134	I196/avC10#18	gnd!	8.37456e-19	$X=4.564 $Y=0.73
C6135	vdd!#31	gnd!	2.84952e-18	$X=4.6505 $Y=2.1495
C6136	CLK#47	gnd!	9.08681e-19	$X=4.7735 $Y=5.056
C6137	Set#31	gnd!	1.43616e-18	$X=4.9365 $Y=1.5965
C6138	I201/avC10#17	gnd!	5.85524e-19	$X=4.9085 $Y=4.1295
C6139	I201/I0/avC9#7	gnd!	3.66865e-18	$X=5.263 $Y=3.8465
C6140	avC7#49	gnd!	2.15961e-18	$X=5.685 $Y=1.243
C6141	CLK#53	gnd!	1.72984e-18	$X=5.7135 $Y=1.5305
C6142	avC7#52	gnd!	2.04202e-18	$X=5.371 $Y=4.587
C6143	I201/I0/avC9#11	gnd!	3.18505e-18	$X=5.947 $Y=3.8575
C6144	I197/I0/avC9#4	gnd!	2.23075e-18	$X=6.2765 $Y=2.1935
C6145	I197/I0/avC8	gnd!	1.2193e-17	$X=3.814 $Y=0.6985
C6146	avC7#61	gnd!	1.22416e-18	$X=6.986 $Y=1.5015
C6147	CLK#66	gnd!	1.98861e-18	$X=7.445 $Y=4.77
C6148	avC7#65	gnd!	4.54394e-19	$X=7.6565 $Y=5.1415
C6149	I197/I0/avC9#8	gnd!	2.63171e-18	$X=6.936 $Y=2.202
C6150	I197/avC10#2	gnd!	1.0939e-18	$X=7.8905 $Y=2.0285
C6151	avC14#5	gnd!	1.22754e-18	$X=8.2385 $Y=4.629
C6152	8_B0#19	gnd!	1.69175e-18	$X=8.039 $Y=3.685
C6153	CLK#73	gnd!	7.83821e-19	$X=8.3055 $Y=1.2315
C6154	avC10	gnd!	2.85446e-19	$X=8.3195 $Y=4.8685
C6155	avC6#33	gnd!	7.84181e-19	$X=8.3215 $Y=2.5655
C6156	vdd!#34	gnd!	3.00717e-19	$X=8.6685 $Y=0.7815
C6157	I197/avC10#9	gnd!	1.59292e-18	$X=8.8085 $Y=1.912
C6158	I197/avC10#13	gnd!	2.03298e-18	$X=8.684 $Y=2.219
C6159	I204/avC7#2	gnd!	1.37723e-18	$X=8.8755 $Y=4.0725
C6160	avC10#3	gnd!	1.77661e-18	$X=9.106 $Y=2.636
C6161	I204/avC7#8	gnd!	3.70522e-19	$X=9.567 $Y=5.3865
C6162	vdd!#39	gnd!	2.65169e-18	$X=9.74 $Y=2.1495
C6163	avC15#3	gnd!	2.62373e-18	$X=9.321 $Y=5.0915
C6164	Set#41	gnd!	1.85377e-18	$X=10.055 $Y=1.5965
C6165	avC15#7	gnd!	3.17207e-18	$X=10.043 $Y=4.2095
C6166	avC15#8	gnd!	8.45975e-19	$X=10.319 $Y=4.16
C6167	CLK#76	gnd!	6.27281e-19	$X=11.114 $Y=1.3795
C6168	avC15#9	gnd!	7.21333e-19	$X=10.084 $Y=4.958
C6169	avC15#17	gnd!	1.39978e-18	$X=11.044 $Y=4.147
C6170	CLK#83	gnd!	2.71716e-18	$X=12.8325 $Y=4.77
C6171	avC7#77	gnd!	1.65518e-18	$X=13.132 $Y=5.133
C6172	I198/I0/avC9#2	gnd!	3.69303e-18	$X=13.166 $Y=3.857
C6173	I198/I0/avC8	gnd!	1.36842e-17	$X=8.8095 $Y=3.7915
C6174	avC7#126	gnd!	2.04924e-18	$X=13.9535 $Y=4.5925
C6175	I198/I0/avC9#7	gnd!	4.51317e-18	$X=13.824 $Y=3.847
C6176	I198/I0/avC9#5	gnd!	5.01528e-18	$X=10.164 $Y=2.841
C6177	I198/avC10#6	gnd!	1.78226e-18	$X=14.618 $Y=3.985
C6178	Set#48	gnd!	2.97444e-19	$X=15.3775 $Y=1.435
C6179	CLK#121	gnd!	1.58923e-18	$X=15.536 $Y=5.056
C6180	avC6#41	gnd!	2.05431e-18	$X=15.3465 $Y=3.5955
C6181	I198/avC10#9	gnd!	7.55954e-19	$X=15.83 $Y=4.2735
C6182	vdd!#44	gnd!	3.89017e-19	$X=16.2695 $Y=5.5585
C6183	I198/avC10#13	gnd!	4.47002e-19	$X=15.9635 $Y=4.1295
C6184	avC6#54	gnd!	5.32114e-19	$X=16.018 $Y=1.012
C6185	avC6#51	gnd!	1.85678e-18	$X=16.02 $Y=1.8705
C6186	avC16	gnd!	4.16917e-18	$X=16.181 $Y=3.5545
C6187	vdd!#47	gnd!	8.85358e-19	$X=16.51 $Y=4.0255
C6188	I198/avC10#18	gnd!	3.73051e-19	$X=16.802 $Y=5.541
C6189	avC6#55	gnd!	2.71297e-19	$X=15.153 $Y=1.3125
C6190	Set#61	gnd!	1.05547e-18	$X=16.6415 $Y=3.556
C6191	vdd!#50	gnd!	1.3595e-18	$X=17.131 $Y=4.0255
C6192	I200/avC10	gnd!	3.52079e-19	$X=17.31 $Y=5.541
C6193	8_B0#32	gnd!	2.59012e-18	$X=17.4525 $Y=1.7075
C6194	avC16#11	gnd!	2.60551e-18	$X=17.144 $Y=1.253
C6195	I205/avC7#2	gnd!	4.68501e-18	$X=17.729 $Y=2.1985
C6196	avC14#16	gnd!	7.01978e-18	$X=17.695 $Y=3.5265
C6197	I200/avC10#11	gnd!	3.03868e-18	$X=17.8615 $Y=4.0905
C6198	I200/avC10#7	gnd!	4.78391e-19	$X=18.534 $Y=4.475
C6199	vdd!#53	gnd!	4.20232e-19	$X=17.8845 $Y=5.4345
C6200	I205/avC7#8	gnd!	1.17619e-19	$X=18.0345 $Y=0.9625
C6201	avC6#66	gnd!	8.55984e-19	$X=18.3775 $Y=3.809
C6202	avC17#3	gnd!	1.69879e-18	$X=17.768 $Y=0.9505
C6203	CLK#128	gnd!	8.5748e-19	$X=18.703 $Y=5.056
C6204	I200/avC10#17	gnd!	3.68746e-18	$X=18.104 $Y=3.985
C6205	avC17#4	gnd!	6.30861e-18	$X=18.35 $Y=2.084
C6206	I200/I0/avC9#7	gnd!	4.25478e-18	$X=18.522 $Y=3.8465
C6207	avC7#134	gnd!	4.60979e-19	$X=18.76 $Y=4.589
C6208	avC17#12	gnd!	3.25106e-18	$X=18.792 $Y=1.896
C6209	avC17#11	gnd!	7.18172e-19	$X=18.377 $Y=0.996
C6210	I200/I0/avC9#11	gnd!	4.05427e-18	$X=19.2215 $Y=3.8575
C6211	avC17#13	gnd!	8.71995e-19	$X=20.389 $Y=2.0645
C6212	CLK#139	gnd!	1.9342e-19	$X=21.986 $Y=4.888
C6213	avC7#141	gnd!	2.79989e-18	$X=21.832 $Y=5.138
C6214	avC7#151	gnd!	1.69487e-18	$X=21.835 $Y=1.2405
C6215	CLK#142	gnd!	1.39509e-18	$X=22.0045 $Y=1.5305
C6216	avC18#7	gnd!	1.95361e-18	$X=22.7145 $Y=4.221
C6217	I199/I0/avC9#4	gnd!	4.23802e-18	$X=21.6295 $Y=2.1935
C6218	avC18#11	gnd!	6.87813e-19	$X=21.5425 $Y=4.958
C6219	avC18#10	gnd!	4.37537e-18	$X=22.113 $Y=4.16
C6220	I199/I0/avC8	gnd!	1.90504e-17	$X=13.6325 $Y=0.6985
C6221	avC7#154	gnd!	1.01193e-18	$X=22.479 $Y=1.502
C6222	I199/I0/avC9#8	gnd!	4.82614e-18	$X=22.264 $Y=2.202
C6223	avC18#18	gnd!	7.65323e-18	$X=22.995 $Y=4.0185
C6224	I199/avC10#2	gnd!	8.40415e-19	$X=23.7195 $Y=2.0285
C6225	CLK#154	gnd!	3.98311e-18	$X=24.4165 $Y=1.2315
C6226	avC18#19	gnd!	9.38933e-19	$X=22.995 $Y=5.092
C6227	avC6#70	gnd!	1.0318e-18	$X=23.928 $Y=2.558
C6228	I206/avC7#9	gnd!	3.26257e-19	$X=25.226 $Y=5.3865
C6229	vdd!#58	gnd!	3.00448e-19	$X=24.551 $Y=0.7815
C6230	I199/avC10#9	gnd!	9.68175e-19	$X=24.8885 $Y=1.912
C6231	I199/avC10#13	gnd!	3.84917e-18	$X=24.752 $Y=2.219
C6232	avC19#8	gnd!	2.38931e-18	$X=25.4085 $Y=2.67
C6233	avC19#7	gnd!	1.17704e-18	$X=23.596 $Y=4.723
C6234	I206/avC7#18	gnd!	1.33261e-18	$X=25.241 $Y=4.0725
C6235	vdd!#64	gnd!	7.77681e-19	$X=25.9835 $Y=2.1495
C6236	Set#74	gnd!	3.53179e-19	$X=25.7205 $Y=1.608
C6237	vdd!#80	gnd!	7.51654e-18	$X=-2.2085 $Y=0.699
C6238	vdd!#210	gnd!	1.7173e-19	$X=-5.7065 $Y=2.051
C6239	I203/avC10#8	gnd!	1.22221e-19	$X=-4.9485 $Y=2.051
C6240	vdd!#215	gnd!	4.84757e-20	$X=-4.7125 $Y=4.499
C6241	I203/I0/avC9	gnd!	2.10666e-18	$X=-3.6835 $Y=2.012
C6242	I203/avC10#13	gnd!	4.1794e-19	$X=-3.994 $Y=2.1915
C6243	vdd!#212	gnd!	7.19071e-19	$X=-3.1575 $Y=4.041
C6244	8_B0#1	gnd!	2.06934e-19	$X=-2.7975 $Y=4.041
C6245	I203/I0/avC9#11	gnd!	3.31955e-19	$X=-2.7445 $Y=2.1915
C6246	I203/I0/avC7#6	gnd!	5.977e-19	$X=-1.8325 $Y=2.085
C6247	vdd!#197	gnd!	2.84223e-19	$X=-1.258 $Y=2.085
C6248	I202/I0/avC9	gnd!	3.04607e-18	$X=-0.7185 $Y=2.81
C6249	I196/I0/avC7#4	gnd!	1.34836e-18	$X=0.6235 $Y=2.085
C6250	I202/I0/avC7#6	gnd!	1.25722e-18	$X=2.3135 $Y=4.1725
C6251	I196/avC10#3	gnd!	3.3284e-19	$X=2.625 $Y=2.1915
C6252	vdd!#180	gnd!	7.84521e-22	$X=2.888 $Y=4.1725
C6253	I196/avC10#11	gnd!	5.15678e-20	$X=3.698 $Y=2.051
C6254	avC13	gnd!	3.62836e-19	$X=4.0275 $Y=2.0405
C6255	I201/I0/avC9	gnd!	3.63991e-18	$X=2.8455 $Y=2.81
C6256	vdd!#164	gnd!	2.6514e-21	$X=5.0665 $Y=2.085
C6257	I197/I0/avC7#4	gnd!	1.16553e-18	$X=5.6415 $Y=2.085
C6258	I201/I0/avC9#12	gnd!	1.80672e-19	$X=6.0475 $Y=3.8635
C6259	I201/I0/avC7#6	gnd!	1.25722e-18	$X=7.3315 $Y=4.1725
C6260	I197/avC10#3	gnd!	4.54074e-19	$X=7.4395 $Y=2.1915
C6261	vdd!#150	gnd!	1.57564e-19	$X=8.6805 $Y=4.21
C6262	I197/avC10#11	gnd!	5.15678e-20	$X=8.6635 $Y=2.051
C6263	I204/avC7#3	gnd!	7.71806e-20	$X=9.0525 $Y=4.21
C6264	avC10#5	gnd!	7.0515e-19	$X=8.9565 $Y=2.0405
C6265	vdd!#147	gnd!	8.04889e-19	$X=8.917 $Y=3.931
C6266	I204/avC6#5	gnd!	4.12412e-18	$X=9.158 $Y=3.895
C6267	avC15#4	gnd!	3.5164e-19	$X=9.656 $Y=3.931
C6268	I204/avC7#14	gnd!	6.60348e-21	$X=11.4395 $Y=4.2785
C6269	vdd!#135	gnd!	2.34965e-19	$X=12.254 $Y=4.1725
C6270	I198/I0/avC7#11	gnd!	3.63221e-19	$X=12.8285 $Y=4.1725
C6271	I198/I0/avC9#3	gnd!	6.06346e-19	$X=13.085 $Y=3.8635
C6272	avC6#49	gnd!	5.15604e-19	$X=15.9625 $Y=1.867
C6273	avC16#8	gnd!	2.41382e-19	$X=16.0155 $Y=4.1285
C6274	vdd!#98	gnd!	3.20988e-19	$X=17.701 $Y=2.1555
C6275	I205/avC7#3	gnd!	2.04024e-19	$X=18.073 $Y=2.1555
C6276	avC14#13	gnd!	7.89872e-19	$X=17.2945 $Y=4.1285
C6277	I200/avC10#9	gnd!	3.13555e-19	$X=17.822 $Y=4.1545
C6278	I205/avC6#5	gnd!	2.8172e-18	$X=17.58 $Y=2.132
C6279	I200/I0/avC9	gnd!	1.25471e-17	$X=12.681 $Y=2.81
C6280	avC17#6	gnd!	1.04587e-18	$X=18.1695 $Y=2.1485
C6281	I205/avC7#14	gnd!	6.90406e-20	$X=20.46 $Y=2.087
C6282	I200/I0/avC7#6	gnd!	3.59284e-19	$X=21.179 $Y=4.1725
C6283	I199/I0/avC7#4	gnd!	9.77076e-19	$X=21.658 $Y=2.085
C6284	I199/I0/avC9#2	gnd!	4.97115e-19	$X=21.5555 $Y=2.1915
C6285	I206/avC7#3	gnd!	3.32642e-19	$X=23.4145 $Y=4.2785
C6286	I199/avC10#3	gnd!	7.59705e-19	$X=22.805 $Y=2.1915
C6287	avC18#15	gnd!	3.1967e-19	$X=22.953 $Y=3.931
C6288	I206/avC6#4	gnd!	1.90342e-19	$X=23.0425 $Y=3.895
C6289	vdd!#74	gnd!	1.75271e-19	$X=23.692 $Y=3.931
C6290	I203/I0/avC8	gnd!	1.47407e-16	$X=-3.477 $Y=0.6995
C6291	avC8#5	gnd!	4.40469e-19	$X=-1.1935 $Y=5.5345
C6292	I202/I0/avC8	gnd!	5.22381e-18	$X=-0.8045 $Y=3.8425
C6293	avC12#5	gnd!	2.44545e-19	$X=3.8855 $Y=5.5345
C6294	avC13#6	gnd!	2.44545e-19	$X=4.2295 $Y=0.7845
C6295	I201/I0/avC8	gnd!	5.83595e-18	$X=2.492 $Y=3.8425
C6296	I204/avC6	gnd!	1.17619e-19	$X=10.6065 $Y=5.408
C6297	avC7#85	gnd!	5.12862e-19	$X=2.608 $Y=0.6875
C6298	avC6#52	gnd!	2.89954e-20	$X=16.4195 $Y=0.966
C6299	avC16#4	gnd!	4.4056e-19	$X=16.5845 $Y=5.5345
C6300	avC14#9	gnd!	4.40469e-19	$X=17.9025 $Y=5.5345
C6301	I200/I0/avC8	gnd!	6.14203e-18	$X=11.589 $Y=3.8425
C6302	I205/avC6	gnd!	1.17619e-19	$X=19.436 $Y=0.8495
C6303	I206/avC6#8	gnd!	1.17619e-19	$X=23.401 $Y=5.408
C6304	avC19#14	gnd!	4.40469e-19	$X=25.522 $Y=0.7845
C6305	avC11#4	gnd!	2.81355e-18	$X=-5.4235 $Y=1.412
C6306	avC9#3	gnd!	5.62163e-19	$X=-4.239 $Y=4.9365
C6307	I203/avC10#15	gnd!	2.7704e-18	$X=-4.088 $Y=1.3995
C6308	I203/avC10#11	gnd!	4.42776e-18	$X=-3.9815 $Y=2.094
C6309	8_B0#5	gnd!	8.77463e-19	$X=-2.786 $Y=4.9285
C6310	vdd!#203	gnd!	1.24941e-18	$X=-1.6145 $Y=4.0125
C6311	avC8#8	gnd!	1.5189e-18	$X=-1.178 $Y=4.966
C6312	I202/avC10#15	gnd!	2.69606e-18	$X=0.1535 $Y=4.983
C6313	I196/I0/avC7#3	gnd!	1.32875e-18	$X=0.804 $Y=1.923
C6314	avC7#34	gnd!	3.43116e-19	$X=2.5165 $Y=5.256
C6315	I196/I0/avC9#5	gnd!	8.99521e-19	$X=1.419 $Y=2.033
C6316	I196/avC10#5	gnd!	2.71555e-18	$X=2.967 $Y=1.3995
C6317	I196/avC10	gnd!	4.05974e-19	$X=2.9615 $Y=2.4625
C6318	vdd!#176	gnd!	2.07565e-19	$X=3.3915 $Y=4.0125
C6319	avC12#10	gnd!	1.16848e-18	$X=3.992 $Y=4.9245
C6320	avC13#4	gnd!	1.70875e-18	$X=4.3415 $Y=1.478
C6321	vdd!#170	gnd!	2.59887e-19	$X=4.5335 $Y=2.233
C6322	I201/avC10#16	gnd!	2.45951e-18	$X=5.07 $Y=4.0985
C6323	I201/avC10#15	gnd!	2.63338e-18	$X=5.2885 $Y=4.983
C6324	I197/I0/avC7#3	gnd!	4.57474e-18	$X=5.863 $Y=1.923
C6325	avC7#64	gnd!	1.78972e-19	$X=7.6725 $Y=5.256
C6326	I197/I0/avC9#5	gnd!	3.76212e-18	$X=5.0635 $Y=2.033
C6327	I197/avC10#5	gnd!	2.72393e-18	$X=8.0985 $Y=1.3995
C6328	I197/avC10	gnd!	1.17058e-18	$X=8.0875 $Y=2.4625
C6329	avC10#8	gnd!	1.30343e-18	$X=9.445 $Y=1.412
C6330	vdd!#141	gnd!	6.85338e-19	$X=9.54 $Y=2.233
C6331	avC7#76	gnd!	1.96899e-19	$X=13.183 $Y=5.256
C6332	I198/I0/avC7#7	gnd!	2.44635e-18	$X=13.109 $Y=4.3755
C6333	avC7#89	gnd!	1.08461e-20	$X=14.7985 $Y=1.3895
C6334	avC7#93	gnd!	1.03406e-18	$X=14.612 $Y=2.0915
C6335	I198/avC10#4	gnd!	2.70677e-18	$X=15.46 $Y=4.983
C6336	Set#50	gnd!	5.26843e-19	$X=15.9065 $Y=1.353
C6337	avC16#7	gnd!	1.24333e-18	$X=16.8175 $Y=4.978
C6338	8_B0#28	gnd!	1.45675e-18	$X=17.193 $Y=1.5455
C6339	avC14#12	gnd!	1.01621e-18	$X=18.1515 $Y=4.978
C6340	I200/avC10#15	gnd!	2.64176e-18	$X=19.4585 $Y=4.983
C6341	avC17#19	gnd!	1.02386e-18	$X=20.6125 $Y=1.987
C6342	avC7#140	gnd!	7.13831e-19	$X=21.901 $Y=5.256
C6343	I199/I0/avC7#3	gnd!	5.49155e-18	$X=22.011 $Y=1.923
C6344	avC18#8	gnd!	2.19689e-18	$X=22.148 $Y=4.263
C6345	I199/I0/avC9#5	gnd!	1.45043e-17	$X=16.697 $Y=2.033
C6346	I199/avC10#5	gnd!	2.73447e-18	$X=24.4765 $Y=1.3995
C6347	I199/avC10	gnd!	1.94026e-18	$X=24.4485 $Y=2.4625
C6348	avC19#13	gnd!	3.67837e-18	$X=25.844 $Y=1.412
C6349	8_B0#41	gnd!	1.70942e-19	$X=26.1035 $Y=4.723
C6350	vdd!#68	gnd!	1.11991e-19	$X=25.52 $Y=2.233
C6351	avC11#2	gnd!	1.92943e-18	$X=-5.386 $Y=2.0555
C6352	avC11#6	gnd!	1.30062e-17	$X=-5.42 $Y=0.901
C6353	avC6#4	gnd!	2.18889e-18	$X=-5.152 $Y=1.3645
C6354	I203/avC10#17	gnd!	1.60942e-17	$X=-4.0835 $Y=0.8355
C6355	avC7#2	gnd!	3.04622e-18	$X=-3.7525 $Y=1.827
C6356	8_B0#7	gnd!	3.72098e-18	$X=-2.786 $Y=5.3795
C6357	I203/I0/avC8#6	gnd!	6.68644e-17	$X=-2.7525 $Y=0.855
C6358	I203/I0/avC7#7	gnd!	8.63513e-18	$X=-1.981 $Y=1.923
C6359	I203/I0/avC7#9	gnd!	3.52864e-18	$X=-2.116 $Y=1.389
C6360	I203/I0/avC7#11	gnd!	3.55701e-17	$X=-1.975 $Y=0.888
C6361	CLK#9	gnd!	6.39236e-19	$X=-1.7465 $Y=1.549
C6362	avC7#7	gnd!	4.95746e-18	$X=-1.7435 $Y=1.137
C6363	avC8#2	gnd!	4.7031e-19	$X=-1.4305 $Y=1.3885
C6364	avC8#6	gnd!	2.09616e-18	$X=-1.1795 $Y=5.47
C6365	avC8#10	gnd!	6.86291e-19	$X=-1.198 $Y=4.2315
C6366	avC6#14	gnd!	1.0292e-18	$X=-0.993 $Y=4.9415
C6367	I202/avC10#13	gnd!	4.59554e-19	$X=0.144 $Y=5.52
C6368	CLK#24	gnd!	5.51223e-19	$X=0.6315 $Y=1.549
C6369	avC7#17	gnd!	1.80449e-19	$X=0.643 $Y=1.137
C6370	avC7#23	gnd!	1.78094e-18	$X=-0.29 $Y=3.608
C6371	I202/I0/avC8#6	gnd!	1.98092e-18	$X=1.402 $Y=5.4125
C6372	I196/I0/avC7#2	gnd!	4.63002e-19	$X=0.9405 $Y=1.3885
C6373	I202/I0/avC7#7	gnd!	2.20392e-18	$X=2.199 $Y=4.3755
C6374	I202/I0/avC7#9	gnd!	4.03086e-19	$X=2.0655 $Y=4.911
C6375	I202/I0/avC7#11	gnd!	1.99233e-18	$X=2.249 $Y=5.4635
C6376	avC7#36	gnd!	2.42262e-19	$X=2.543 $Y=5.1585
C6377	CLK#33	gnd!	8.39105e-19	$X=2.489 $Y=4.698
C6378	I196/I0/avC8#6	gnd!	2.22775e-18	$X=1.5505 $Y=0.855
C6379	avC12#2	gnd!	1.05861e-18	$X=2.751 $Y=4.9115
C6380	I196/avC10#7	gnd!	2.15402e-19	$X=2.951 $Y=0.8355
C6381	Set#17	gnd!	1.40216e-18	$X=3.1475 $Y=4.614
C6382	Set#18	gnd!	2.8393e-18	$X=3.18 $Y=4.7655
C6383	avC12#6	gnd!	1.95291e-18	$X=3.9945 $Y=5.584
C6384	avC12#8	gnd!	3.49319e-19	$X=3.625 $Y=5.2105
C6385	avC12#12	gnd!	4.94289e-19	$X=3.898 $Y=4.315
C6386	avC6#25	gnd!	1.39082e-18	$X=4.0755 $Y=4.9415
C6387	Set#27	gnd!	1.80241e-18	$X=4.419 $Y=1.401
C6388	I201/avC10#13	gnd!	4.68559e-19	$X=5.2605 $Y=5.52
C6389	avC13#2	gnd!	4.41687e-19	$X=4.243 $Y=2.014
C6390	avC13#5	gnd!	2.4405e-19	$X=4.52 $Y=1.12
C6391	avC13#7	gnd!	1.9671e-18	$X=4.344 $Y=0.82
C6392	Set#32	gnd!	3.08873e-18	$X=5.213 $Y=1.6595
C6393	CLK#54	gnd!	7.71035e-19	$X=5.771 $Y=1.549
C6394	avC7#47	gnd!	3.44336e-19	$X=5.801 $Y=1.137
C6395	avC7#53	gnd!	8.63204e-19	$X=3.9005 $Y=3.608
C6396	I201/I0/avC8#6	gnd!	1.80308e-18	$X=6.4295 $Y=5.4125
C6397	I197/I0/avC7#2	gnd!	6.19522e-19	$X=6.0015 $Y=1.3885
C6398	I197/I0/avC7#7	gnd!	1.99233e-18	$X=5.9515 $Y=0.888
C6399	I201/I0/avC7#7	gnd!	1.86185e-18	$X=7.2585 $Y=4.3755
C6400	I201/I0/avC7#9	gnd!	1.14725e-18	$X=7.1265 $Y=4.911
C6401	I201/I0/avC7#11	gnd!	5.11941e-19	$X=7.3615 $Y=5.4635
C6402	avC7#66	gnd!	1.01947e-20	$X=7.726 $Y=5.1585
C6403	CLK#63	gnd!	4.36445e-19	$X=7.617 $Y=4.698
C6404	I197/I0/avC8#6	gnd!	2.65396e-18	$X=6.578 $Y=0.855
C6405	avC14#2	gnd!	1.03214e-18	$X=7.812 $Y=4.9115
C6406	I197/avC10#7	gnd!	2.06397e-19	$X=8.067 $Y=0.8355
C6407	avC10#6	gnd!	1.39766e-18	$X=9.308 $Y=2.037
C6408	avC10#10	gnd!	2.07918e-18	$X=9.431 $Y=0.901
C6409	Set#37	gnd!	1.36491e-18	$X=9.4885 $Y=1.401
C6410	avC15#5	gnd!	8.89091e-19	$X=10.4155 $Y=3.9455
C6411	I204/avC6#2	gnd!	1.12276e-18	$X=10.8455 $Y=5.387
C6412	I204/avC6#4	gnd!	1.63166e-18	$X=10.4335 $Y=4.515
C6413	I204/avC6#6	gnd!	9.04514e-18	$X=9.5675 $Y=4.1555
C6414	Set#42	gnd!	1.69539e-18	$X=10.3985 $Y=1.6595
C6415	I204/avC7#12	gnd!	2.16408e-18	$X=9.7795 $Y=3.339
C6416	I204/avC7#15	gnd!	3.00165e-19	$X=11.232 $Y=4.302
C6417	avC7#78	gnd!	7.41796e-19	$X=13.265 $Y=5.1585
C6418	CLK#81	gnd!	3.36906e-19	$X=13.0975 $Y=4.698
C6419	I198/I0/avC7#6	gnd!	1.20545e-18	$X=13.25 $Y=4.9115
C6420	I198/I0/avC7#9	gnd!	2.54227e-19	$X=13.2735 $Y=5.4635
C6421	avC7#90	gnd!	1.34004e-18	$X=1.631 $Y=1.024
C6422	I198/I0/avC8#6	gnd!	1.71745e-18	$X=13.7785 $Y=5.4125
C6423	I198/avC10#2	gnd!	7.46205e-19	$X=15.3955 $Y=5.52
C6424	CLK#124	gnd!	1.04074e-18	$X=12.6765 $Y=4.7335
C6425	avC16#5	gnd!	2.19788e-18	$X=16.7815 $Y=5.47
C6426	avC16#9	gnd!	1.6617e-18	$X=16.336 $Y=3.972
C6427	avC6#58	gnd!	1.56124e-18	$X=16.577 $Y=1.5945
C6428	Set#58	gnd!	1.91304e-18	$X=16.749 $Y=4.908
C6429	Set#64	gnd!	1.17726e-18	$X=16.414 $Y=4.422
C6430	avC14#10	gnd!	2.35989e-18	$X=18.113 $Y=5.47
C6431	avC14#14	gnd!	1.34375e-18	$X=17.774 $Y=3.9695
C6432	avC6#62	gnd!	1.03318e-18	$X=18.0645 $Y=4.9415
C6433	I200/avC10#13	gnd!	4.59554e-19	$X=19.3795 $Y=5.52
C6434	I205/avC6#2	gnd!	1.25447e-18	$X=19.8225 $Y=0.9535
C6435	I205/avC6#4	gnd!	1.77495e-18	$X=19.2105 $Y=1.713
C6436	I205/avC6#6	gnd!	7.80885e-18	$X=18.283 $Y=2.038
C6437	avC7#135	gnd!	1.43894e-18	$X=15.464 $Y=3.608
C6438	I205/avC7#12	gnd!	4.02918e-18	$X=18.5045 $Y=2.8595
C6439	I200/I0/avC8#6	gnd!	1.71516e-18	$X=20.304 $Y=5.4125
C6440	I205/avC7#15	gnd!	7.52821e-19	$X=20.13 $Y=1.9955
C6441	I200/I0/avC7#7	gnd!	1.39261e-18	$X=21.22 $Y=4.3755
C6442	I200/I0/avC7#9	gnd!	2.5963e-20	$X=21.0925 $Y=4.911
C6443	I200/I0/avC7#11	gnd!	2.54227e-19	$X=21.469 $Y=5.4635
C6444	avC7#142	gnd!	8.82197e-19	$X=22.028 $Y=5.1585
C6445	CLK#136	gnd!	3.59971e-19	$X=21.7685 $Y=4.698
C6446	avC7#149	gnd!	6.98341e-19	$X=22.2635 $Y=1.137
C6447	avC18#2	gnd!	4.85982e-19	$X=21.7775 $Y=4.9115
C6448	I199/I0/avC7#2	gnd!	2.5963e-20	$X=22.155 $Y=1.3885
C6449	I199/I0/avC7#7	gnd!	2.54227e-19	$X=22.269 $Y=0.888
C6450	I206/avC7#4	gnd!	1.18327e-18	$X=23.0845 $Y=4.302
C6451	I199/I0/avC8#6	gnd!	2.22775e-18	$X=22.625 $Y=0.855
C6452	I199/avC10#7	gnd!	2.06397e-19	$X=24.397 $Y=0.8355
C6453	I206/avC6#5	gnd!	3.4407e-18	$X=23.937 $Y=4.1555
C6454	I206/avC6#7	gnd!	1.53623e-18	$X=23.342 $Y=4.515
C6455	I206/avC6#9	gnd!	6.71001e-19	$X=23.813 $Y=5.386
C6456	I206/avC7#13	gnd!	1.02339e-17	$X=23.767 $Y=3.339
C6457	avC19#11	gnd!	1.76781e-18	$X=25.4515 $Y=2.064
C6458	avC19#15	gnd!	4.56058e-18	$X=25.81 $Y=0.901
C6459	Set#70	gnd!	9.99766e-19	$X=25.6685 $Y=1.401
C6460	8_B0#44	gnd!	1.11688e-18	$X=25.0995 $Y=4.6895
C6461	vdd!#66	gnd!	7.75697e-19	$X=26.1225 $Y=4.014
C6462	vdd!#75	gnd!	5.6591e-19	$X=24.728 $Y=3.973
C6463	vdd!#87	gnd!	1.33397e-18	$X=22.1705 $Y=4.126
C6464	vdd!#90	gnd!	9.52469e-19	$X=18.1865 $Y=2.292
C6465	vdd!#99	gnd!	3.53147e-19	$X=17.631 $Y=2.3395
C6466	vdd!#136	gnd!	1.57447e-19	$X=12.4765 $Y=4.126
C6467	vdd!#148	gnd!	2.9106e-18	$X=9.3425 $Y=3.973
C6468	vdd!#151	gnd!	1.55089e-18	$X=8.633 $Y=4.0135
C6469	vdd!#155	gnd!	8.47605e-19	$X=8.0965 $Y=4.126
C6470	vdd!#165	gnd!	4.29251e-19	$X=5.172 $Y=2.2135
C6471	vdd!#181	gnd!	7.53125e-20	$X=2.9965 $Y=4.126
C6472	vdd!#198	gnd!	1.47058e-18	$X=-1.217 $Y=2.2135
C6473	vdd!#213	gnd!	4.68065e-19	$X=-3.189 $Y=3.9825
C6474	vdd!#216	gnd!	1.17709e-19	$X=-4.7145 $Y=4.2085
*
*
.ENDS LFSR_8_0
*
