*
*
*
*                       LINUX           Mon May 17 19:54:12 2021
*
*
*
*  PROGRAM  advgen
*
*  Name           : advgen - Quantus - (64-bit)
*  Version        : 20.1.2-p025
*  Build Date     : Thu Sep 3 13:54:09 PDT 2020
*
*  HSPICE LIBRARY
*
*!LENGTH_UNITS METERS
*
*
*

*
.SUBCKT testbench_av_extracted vdd! gnd! CLK Set B_OUT
*
*
*  caps2d version: 10
*
*
*       TRANSISTOR CARDS
*
*
MI2/I334/avD1_1	I2/I334/avC7#9	avC8#50	gnd!#127	gnd!#27
+ nmos1v#20ivpcell#20gpdk090	L=1e-07	W=2.4e-07
+ AD=3.84e-14	AS=6.72e-14	PD=5.6e-07	PS=1.04e-06	simW=2.4e-07 fw=2.4e-07
MI2/I334/avD1_2	I2/avC17#19	I2/avC18	I2/I334/avC7#9	gnd!#27
+ nmos1v#20ivpcell#20gpdk090	L=1e-07	W=2.4e-07
+ AD=6.72e-14	AS=3.84e-14	PD=1.04e-06	PS=5.6e-07	simW=2.4e-07 fw=2.4e-07
MI2/I334/avD1_3	I2/I334/avC6#8	I2/avC18#3	gnd!#136	gnd!#27
+ nmos1v#20ivpcell#20gpdk090	L=1e-07	W=4.8e-07
+ AD=1.344e-13	AS=1.344e-13	PD=1.52e-06	PS=1.52e-06	simW=4.8e-07 fw=4.8e-07
MI2/I334/avD1_4	I2/I334/avC8	I2/I334/avC6#3	I2/avC17#11	gnd!#27
+ nmos1v#20ivpcell#20gpdk090	L=1e-07	W=3.6e-07
+ AD=2.16e-14	AS=1.008e-13	PD=4.8e-07	PS=1.28e-06	simW=3.6e-07 fw=3.6e-07
MI2/I334/avD1_5	gnd!#160	I2/I334/avC7	I2/I334/avC8	gnd!#27
+ nmos1v#20ivpcell#20gpdk090	L=1e-07	W=3.6e-07
+ AD=1.008e-13	AS=2.16e-14	PD=1.28e-06	PS=4.8e-07	simW=3.6e-07 fw=3.6e-07
MI2/I10/avD1_1	avC8#37	I2/avC7#12	gnd!#531	gnd!#27
+ nmos1v#20ivpcell#20gpdk090	L=1e-07	W=3e-07
+ AD=8.4e-14	AS=8.4e-14	PD=1.16e-06	PS=1.16e-06	simW=3e-07 fw=3e-07
MI2/I4/avD1_1	I2/avC7#4	I2/avC6#13	gnd!#534	gnd!#27
+ nmos1v#20ivpcell#20gpdk090	L=1e-07	W=1.2e-07
+ AD=6.96e-14	AS=6.96e-14	PD=1.16e-06	PS=1.16e-06	simW=1.2e-07 fw=1.2e-07
MI2/I337/I1/avD1_1	I2/avC15#5	I2/avC9#77	vdd!#227	gnd!#27
+ nmos1v#20ivpcell#20gpdk090	L=1e-07	W=3e-07
+ AD=4.8e-14	AS=8.4e-14	PD=6.2e-07	PS=1.16e-06	simW=3e-07 fw=3e-07
MI2/I337/I1/avD1_2	I2/I337/avC10#2	Set#239	I2/avC15#5
+ gnd!#27	nmos1v#20ivpcell#20gpdk090	L=1e-07	W=3e-07
+ AD=8.4e-14	AS=4.8e-14	PD=1.16e-06	PS=6.2e-07	simW=3e-07 fw=3e-07
MI2/I337/I0/avD1_1	I2/I337/I0/avC10	I2/avC17#4	gnd!#186
+ gnd!#27	nmos1v#20ivpcell#20gpdk090	L=1e-07	W=2.4e-07
+ AD=1.44e-14	AS=6.72e-14	PD=3.6e-07	PS=1.04e-06	simW=2.4e-07 fw=2.4e-07
MI2/I337/I0/avD1_2	I2/I337/I0/avC7#10	I2/avC8#168
+ I2/I337/I0/avC10	gnd!#27	nmos1v#20ivpcell#20gpdk090	L=1e-07
+ W=2.4e-07
+ AD=6.72e-14	AS=1.44e-14	PD=1.04e-06	PS=3.6e-07
+ simW=2.4e-07 fw=2.4e-07
MI2/I338/I1/avD1_1	I2/avC14#5	I2/avC9#55	vdd!#184	gnd!#27
+ nmos1v#20ivpcell#20gpdk090	L=1e-07	W=3e-07
+ AD=4.8e-14	AS=8.4e-14	PD=6.2e-07	PS=1.16e-06	simW=3e-07 fw=3e-07
MI2/I338/I1/avD1_2	I2/I338/avC10#2	Set#171	I2/avC14#5
+ gnd!#27	nmos1v#20ivpcell#20gpdk090	L=1e-07	W=3e-07
+ AD=8.4e-14	AS=4.8e-14	PD=1.16e-06	PS=6.2e-07	simW=3e-07 fw=3e-07
MI2/I338/I0/avD1_1	I2/I338/I0/avC10	I2/avC15#4	gnd!#250
+ gnd!#27	nmos1v#20ivpcell#20gpdk090	L=1e-07	W=2.4e-07
+ AD=1.44e-14	AS=6.72e-14	PD=3.6e-07	PS=1.04e-06	simW=2.4e-07 fw=2.4e-07
MI2/I338/I0/avD1_2	I2/I338/I0/avC7#10	I2/avC8#141
+ I2/I338/I0/avC10	gnd!#27	nmos1v#20ivpcell#20gpdk090	L=1e-07
+ W=2.4e-07
+ AD=6.72e-14	AS=1.44e-14	PD=1.04e-06	PS=3.6e-07
+ simW=2.4e-07 fw=2.4e-07
MI2/I339/I1/avD1_1	I2/avC12#5	I2/avC9#36	vdd!#137	gnd!#27
+ nmos1v#20ivpcell#20gpdk090	L=1e-07	W=3e-07
+ AD=4.8e-14	AS=8.4e-14	PD=6.2e-07	PS=1.16e-06	simW=3e-07 fw=3e-07
MI2/I339/I1/avD1_2	I2/I339/avC10#2	Set#118	I2/avC12#5
+ gnd!#27	nmos1v#20ivpcell#20gpdk090	L=1e-07	W=3e-07
+ AD=8.4e-14	AS=4.8e-14	PD=1.16e-06	PS=6.2e-07	simW=3e-07 fw=3e-07
MI2/I339/I0/avD1_1	I2/I339/I0/avC10	I2/avC14#4	gnd!#353
+ gnd!#27	nmos1v#20ivpcell#20gpdk090	L=1e-07	W=2.4e-07
+ AD=1.44e-14	AS=6.72e-14	PD=3.6e-07	PS=1.04e-06	simW=2.4e-07 fw=2.4e-07
MI2/I339/I0/avD1_2	I2/I339/I0/avC7#10	I2/avC8#80
+ I2/I339/I0/avC10	gnd!#27	nmos1v#20ivpcell#20gpdk090	L=1e-07
+ W=2.4e-07
+ AD=6.72e-14	AS=1.44e-14	PD=1.04e-06	PS=3.6e-07
+ simW=2.4e-07 fw=2.4e-07
MI2/I340/I1/avD1_1	I2/avC10#5	I2/avC9#17	vdd!#73	gnd!#27
+ nmos1v#20ivpcell#20gpdk090	L=1e-07	W=3e-07
+ AD=4.8e-14	AS=8.4e-14	PD=6.2e-07	PS=1.16e-06	simW=3e-07 fw=3e-07
MI2/I340/I1/avD1_2	I2/I340/avC10#2	Set#49	I2/avC10#5	gnd!#27
+ nmos1v#20ivpcell#20gpdk090	L=1e-07	W=3e-07
+ AD=8.4e-14	AS=4.8e-14	PD=1.16e-06	PS=6.2e-07	simW=3e-07 fw=3e-07
MI2/I340/I0/avD1_1	I2/I340/I0/avC10	I2/avC12#4	gnd!#419
+ gnd!#27	nmos1v#20ivpcell#20gpdk090	L=1e-07	W=2.4e-07
+ AD=1.44e-14	AS=6.72e-14	PD=3.6e-07	PS=1.04e-06	simW=2.4e-07 fw=2.4e-07
MI2/I340/I0/avD1_2	I2/I340/I0/avC7#10	I2/avC8#49
+ I2/I340/I0/avC10	gnd!#27	nmos1v#20ivpcell#20gpdk090	L=1e-07
+ W=2.4e-07
+ AD=6.72e-14	AS=1.44e-14	PD=1.04e-06	PS=3.6e-07
+ simW=2.4e-07 fw=2.4e-07
MI2/I341/I1/avD1_1	I2/avC6	I2/avC9#6	vdd!#28	gnd!#27
+ nmos1v#20ivpcell#20gpdk090	L=1e-07	W=3e-07
+ AD=4.8e-14	AS=8.4e-14	PD=6.2e-07	PS=1.16e-06	simW=3e-07 fw=3e-07
MI2/I341/I1/avD1_2	I2/I341/avC10#2	Set#23	I2/avC6	gnd!#27
+ nmos1v#20ivpcell#20gpdk090	L=1e-07	W=3e-07
+ AD=8.4e-14	AS=4.8e-14	PD=1.16e-06	PS=6.2e-07	simW=3e-07 fw=3e-07
MI2/I341/I0/avD1_1	I2/I341/I0/avC10	I2/avC10#4	gnd!#485
+ gnd!#27	nmos1v#20ivpcell#20gpdk090	L=1e-07	W=2.4e-07
+ AD=1.44e-14	AS=6.72e-14	PD=3.6e-07	PS=1.04e-06	simW=2.4e-07 fw=2.4e-07
MI2/I341/I0/avD1_2	I2/I341/I0/avC7#10	I2/avC8#12
+ I2/I341/I0/avC10	gnd!#27	nmos1v#20ivpcell#20gpdk090	L=1e-07
+ W=2.4e-07
+ AD=6.72e-14	AS=1.44e-14	PD=1.04e-06	PS=3.6e-07
+ simW=2.4e-07 fw=2.4e-07
MI2/I336/I1/avD1_1	I2/avC18#10	I2/avC9#95	vdd!#282	gnd!#27
+ nmos1v#20ivpcell#20gpdk090	L=1e-07	W=3e-07
+ AD=4.8e-14	AS=8.4e-14	PD=6.2e-07	PS=1.16e-06	simW=3e-07 fw=3e-07
MI2/I336/I1/avD1_2	I2/I336/avC10#17	Set#316	I2/avC18#10
+ gnd!#27	nmos1v#20ivpcell#20gpdk090	L=1e-07	W=3e-07
+ AD=8.4e-14	AS=4.8e-14	PD=1.16e-06	PS=6.2e-07	simW=3e-07 fw=3e-07
MI2/I336/I0/avD1_1	I2/I336/I0/avC10	I2/avC16#4	gnd!#166
+ gnd!#27	nmos1v#20ivpcell#20gpdk090	L=1e-07	W=2.4e-07
+ AD=1.44e-14	AS=6.72e-14	PD=3.6e-07	PS=1.04e-06	simW=2.4e-07 fw=2.4e-07
MI2/I336/I0/avD1_2	I2/I336/I0/avC7#6	I2/avC8#173
+ I2/I336/I0/avC10	gnd!#27	nmos1v#20ivpcell#20gpdk090	L=1e-07
+ W=2.4e-07
+ AD=6.72e-14	AS=1.44e-14	PD=1.04e-06	PS=3.6e-07
+ simW=2.4e-07 fw=2.4e-07
MI2/I335/I1/avD1_1	I2/avC16#10	I2/avC9#85	vdd!#245	gnd!#27
+ nmos1v#20ivpcell#20gpdk090	L=1e-07	W=3e-07
+ AD=4.8e-14	AS=8.4e-14	PD=6.2e-07	PS=1.16e-06	simW=3e-07 fw=3e-07
MI2/I335/I1/avD1_2	I2/I335/avC10#16	Set#274	I2/avC16#10
+ gnd!#27	nmos1v#20ivpcell#20gpdk090	L=1e-07	W=3e-07
+ AD=8.4e-14	AS=4.8e-14	PD=1.16e-06	PS=6.2e-07	simW=3e-07 fw=3e-07
MI2/I335/I0/avD1_1	I2/I335/I0/avC10	I2/avC13#17	gnd!#229
+ gnd!#27	nmos1v#20ivpcell#20gpdk090	L=1e-07	W=2.4e-07
+ AD=1.44e-14	AS=6.72e-14	PD=3.6e-07	PS=1.04e-06	simW=2.4e-07 fw=2.4e-07
MI2/I335/I0/avD1_2	I2/I335/I0/avC7#6	I2/avC8#143
+ I2/I335/I0/avC10	gnd!#27	nmos1v#20ivpcell#20gpdk090	L=1e-07
+ W=2.4e-07
+ AD=6.72e-14	AS=1.44e-14	PD=1.04e-06	PS=3.6e-07
+ simW=2.4e-07 fw=2.4e-07
MI2/I331/I1/avD1_1	I2/avC13#5	I2/avC9#48	vdd!#144	gnd!#27
+ nmos1v#20ivpcell#20gpdk090	L=1e-07	W=3e-07
+ AD=4.8e-14	AS=8.4e-14	PD=6.2e-07	PS=1.16e-06	simW=3e-07 fw=3e-07
MI2/I331/I1/avD1_2	I2/I331/avC10#16	Set#123	I2/avC13#5
+ gnd!#27	nmos1v#20ivpcell#20gpdk090	L=1e-07	W=3e-07
+ AD=8.4e-14	AS=4.8e-14	PD=1.16e-06	PS=6.2e-07	simW=3e-07 fw=3e-07
MI2/I331/I0/avD1_1	I2/I331/I0/avC10	I2/avC11#13	gnd!#422
+ gnd!#27	nmos1v#20ivpcell#20gpdk090	L=1e-07	W=2.4e-07
+ AD=1.44e-14	AS=6.72e-14	PD=3.6e-07	PS=1.04e-06	simW=2.4e-07 fw=2.4e-07
MI2/I331/I0/avD1_2	I2/I331/I0/avC7#10	I2/avC8#41
+ I2/I331/I0/avC10	gnd!#27	nmos1v#20ivpcell#20gpdk090	L=1e-07
+ W=2.4e-07
+ AD=6.72e-14	AS=1.44e-14	PD=1.04e-06	PS=3.6e-07
+ simW=2.4e-07 fw=2.4e-07
MI2/I330/I1/avD1_1	I2/avC11#6	I2/avC9#25	vdd!#78	gnd!#27
+ nmos1v#20ivpcell#20gpdk090	L=1e-07	W=3e-07
+ AD=4.8e-14	AS=8.4e-14	PD=6.2e-07	PS=1.16e-06	simW=3e-07 fw=3e-07
MI2/I330/I1/avD1_2	I2/I330/avC10#16	Set#54	I2/avC11#6	gnd!#27
+ nmos1v#20ivpcell#20gpdk090	L=1e-07	W=3e-07
+ AD=8.4e-14	AS=4.8e-14	PD=1.16e-06	PS=6.2e-07	simW=3e-07 fw=3e-07
MI2/I330/I0/avD1_1	I2/I330/I0/avC10	avC8#34	gnd!#488
+ gnd!#27	nmos1v#20ivpcell#20gpdk090	L=1e-07	W=2.4e-07
+ AD=1.44e-14	AS=6.72e-14	PD=3.6e-07	PS=1.04e-06	simW=2.4e-07 fw=2.4e-07
MI2/I330/I0/avD1_2	I2/I330/I0/avC7#10	I2/avC8#11
+ I2/I330/I0/avC10	gnd!#27	nmos1v#20ivpcell#20gpdk090	L=1e-07
+ W=2.4e-07
+ AD=6.72e-14	AS=1.44e-14	PD=1.04e-06	PS=3.6e-07
+ simW=2.4e-07 fw=2.4e-07
MI1/I206/avD1_1	I1/I206/avC7#7	avC11#60	gnd!#133	gnd!#27
+ nmos1v#20ivpcell#20gpdk090	L=1e-07	W=2.4e-07
+ AD=3.84e-14	AS=6.72e-14	PD=5.6e-07	PS=1.04e-06	simW=2.4e-07 fw=2.4e-07
MI1/I206/avD1_2	I1/avC18#20	I1/avC19	I1/I206/avC7#7	gnd!#27
+ nmos1v#20ivpcell#20gpdk090	L=1e-07	W=2.4e-07
+ AD=6.72e-14	AS=3.84e-14	PD=1.04e-06	PS=5.6e-07	simW=2.4e-07 fw=2.4e-07
MI1/I206/avD1_3	I1/I206/avC6#8	I1/avC19#3	gnd!#148	gnd!#27
+ nmos1v#20ivpcell#20gpdk090	L=1e-07	W=4.8e-07
+ AD=1.344e-13	AS=1.344e-13	PD=1.52e-06	PS=1.52e-06	simW=4.8e-07 fw=4.8e-07
MI1/I206/avD1_4	I1/I206/avC8	I1/I206/avC6#3	I1/avC18#12	gnd!#27
+ nmos1v#20ivpcell#20gpdk090	L=1e-07	W=3.6e-07
+ AD=2.16e-14	AS=1.008e-13	PD=4.8e-07	PS=1.28e-06	simW=3.6e-07 fw=3.6e-07
MI1/I206/avD1_5	gnd!#172	I1/I206/avC7	I1/I206/avC8	gnd!#27
+ nmos1v#20ivpcell#20gpdk090	L=1e-07	W=3.6e-07
+ AD=1.008e-13	AS=2.16e-14	PD=1.28e-06	PS=4.8e-07	simW=3.6e-07 fw=3.6e-07
MI1/I204/avD1_1	I1/I204/avC7#6	avC11#40	gnd!#410	gnd!#27
+ nmos1v#20ivpcell#20gpdk090	L=1e-07	W=2.4e-07
+ AD=3.84e-14	AS=6.72e-14	PD=5.6e-07	PS=1.04e-06	simW=2.4e-07 fw=2.4e-07
MI1/I204/avD1_2	I1/avC15	I1/avC10#17	I1/I204/avC7#6	gnd!#27
+ nmos1v#20ivpcell#20gpdk090	L=1e-07	W=2.4e-07
+ AD=6.72e-14	AS=3.84e-14	PD=1.04e-06	PS=5.6e-07	simW=2.4e-07 fw=2.4e-07
MI1/I204/avD1_3	I1/I204/avC6	I1/avC10#14	gnd!#390	gnd!#27
+ nmos1v#20ivpcell#20gpdk090	L=1e-07	W=4.8e-07
+ AD=1.344e-13	AS=1.344e-13	PD=1.52e-06	PS=1.52e-06	simW=4.8e-07 fw=4.8e-07
MI1/I204/avD1_4	I1/I204/avC8	I1/I204/avC6#9	I1/avC15#10	gnd!#27
+ nmos1v#20ivpcell#20gpdk090	L=1e-07	W=3.6e-07
+ AD=2.16e-14	AS=1.008e-13	PD=4.8e-07	PS=1.28e-06	simW=3.6e-07 fw=3.6e-07
MI1/I204/avD1_5	gnd!#368	I1/I204/avC7#18	I1/I204/avC8	gnd!#27
+ nmos1v#20ivpcell#20gpdk090	L=1e-07	W=3.6e-07
+ AD=1.008e-13	AS=2.16e-14	PD=1.28e-06	PS=4.8e-07	simW=3.6e-07 fw=3.6e-07
MI1/I205/avD1_1	I1/I205/avC7#9	avC11#50	gnd!#269	gnd!#27
+ nmos1v#20ivpcell#20gpdk090	L=1e-07	W=2.4e-07
+ AD=3.84e-14	AS=6.72e-14	PD=5.6e-07	PS=1.04e-06	simW=2.4e-07 fw=2.4e-07
MI1/I205/avD1_2	I1/avC17	I1/avC16#18	I1/I205/avC7#9	gnd!#27
+ nmos1v#20ivpcell#20gpdk090	L=1e-07	W=2.4e-07
+ AD=6.72e-14	AS=3.84e-14	PD=1.04e-06	PS=5.6e-07	simW=2.4e-07 fw=2.4e-07
MI1/I205/avD1_3	I1/I205/avC6	I1/avC16#16	gnd!#223	gnd!#27
+ nmos1v#20ivpcell#20gpdk090	L=1e-07	W=4.8e-07
+ AD=1.344e-13	AS=1.344e-13	PD=1.52e-06	PS=1.52e-06	simW=4.8e-07 fw=4.8e-07
MI1/I205/avD1_4	I1/I205/avC8	I1/I205/avC6#10	I1/avC17#9	gnd!#27
+ nmos1v#20ivpcell#20gpdk090	L=1e-07	W=3.6e-07
+ AD=2.16e-14	AS=1.008e-13	PD=4.8e-07	PS=1.28e-06	simW=3.6e-07 fw=3.6e-07
MI1/I205/avD1_5	gnd!#199	I1/I205/avC7#18	I1/I205/avC8	gnd!#27
+ nmos1v#20ivpcell#20gpdk090	L=1e-07	W=3.6e-07
+ AD=1.008e-13	AS=2.16e-14	PD=1.28e-06	PS=4.8e-07	simW=3.6e-07 fw=3.6e-07
MI1/I7/avD1_1	avC11#17	I1/avC9#10	gnd!#585	gnd!#27
+ nmos1v#20ivpcell#20gpdk090	L=1e-07	W=3e-07
+ AD=8.4e-14	AS=8.4e-14	PD=1.16e-06	PS=1.16e-06	simW=3e-07 fw=3e-07
MI1/I4/avD1_1	I1/avC9#7	I1/avC11#14	gnd!#602	gnd!#27
+ nmos1v#20ivpcell#20gpdk090	L=1e-07	W=1.2e-07
+ AD=6.96e-14	AS=6.96e-14	PD=1.16e-06	PS=1.16e-06	simW=1.2e-07 fw=1.2e-07
MI1/I200/I1/avD1_1	I1/avC14#9	I1/avC6#65	vdd!#238	gnd!#27
+ nmos1v#20ivpcell#20gpdk090	L=1e-07	W=3e-07
+ AD=4.8e-14	AS=8.4e-14	PD=6.2e-07	PS=1.16e-06	simW=3e-07 fw=3e-07
MI1/I200/I1/avD1_2	I1/I200/avC10#2	Set#259	I1/avC14#9
+ gnd!#27	nmos1v#20ivpcell#20gpdk090	L=1e-07	W=3e-07
+ AD=8.4e-14	AS=4.8e-14	PD=1.16e-06	PS=6.2e-07	simW=3e-07 fw=3e-07
MI1/I200/I0/avD1_1	I1/I200/I0/avC10	I1/avC18#4	gnd!#193
+ gnd!#27	nmos1v#20ivpcell#20gpdk090	L=1e-07	W=2.4e-07
+ AD=1.44e-14	AS=6.72e-14	PD=3.6e-07	PS=1.04e-06	simW=2.4e-07 fw=2.4e-07
MI1/I200/I0/avD1_2	I1/I200/I0/avC7#10	I1/avC7#138
+ I1/I200/I0/avC10	gnd!#27	nmos1v#20ivpcell#20gpdk090	L=1e-07
+ W=2.4e-07
+ AD=6.72e-14	AS=1.44e-14	PD=1.04e-06	PS=3.6e-07
+ simW=2.4e-07 fw=2.4e-07
MI1/I198/I1/avD1_1	I1/avC16#4	I1/avC6#52	vdd!#222	gnd!#27
+ nmos1v#20ivpcell#20gpdk090	L=1e-07	W=3e-07
+ AD=4.8e-14	AS=8.4e-14	PD=6.2e-07	PS=1.16e-06	simW=3e-07 fw=3e-07
MI1/I198/I1/avD1_2	I1/I198/avC10#16	Set#251	I1/avC16#4
+ gnd!#27	nmos1v#20ivpcell#20gpdk090	L=1e-07	W=3e-07
+ AD=8.4e-14	AS=4.8e-14	PD=1.16e-06	PS=6.2e-07	simW=3e-07 fw=3e-07
MI1/I198/I0/avD1_1	I1/I198/I0/avC10	I1/avC15#19	gnd!#341
+ gnd!#27	nmos1v#20ivpcell#20gpdk090	L=1e-07	W=2.4e-07
+ AD=1.44e-14	AS=6.72e-14	PD=3.6e-07	PS=1.04e-06	simW=2.4e-07 fw=2.4e-07
MI1/I198/I0/avD1_2	I1/I198/I0/avC7#8	I1/avC7#77
+ I1/I198/I0/avC10	gnd!#27	nmos1v#20ivpcell#20gpdk090	L=1e-07
+ W=2.4e-07
+ AD=6.72e-14	AS=1.44e-14	PD=1.04e-06	PS=3.6e-07
+ simW=2.4e-07 fw=2.4e-07
MI1/I201/I1/avD1_1	I1/avC12#5	I1/avC6#28	vdd!#119	gnd!#27
+ nmos1v#20ivpcell#20gpdk090	L=1e-07	W=3e-07
+ AD=4.8e-14	AS=8.4e-14	PD=6.2e-07	PS=1.16e-06	simW=3e-07 fw=3e-07
MI1/I201/I1/avD1_2	I1/I201/avC10#2	Set#83	I1/avC12#5	gnd!#27
+ nmos1v#20ivpcell#20gpdk090	L=1e-07	W=3e-07
+ AD=8.4e-14	AS=4.8e-14	PD=1.16e-06	PS=6.2e-07	simW=3e-07 fw=3e-07
MI1/I201/I0/avD1_1	I1/I201/I0/avC10	I1/avC14#4	gnd!#451
+ gnd!#27	nmos1v#20ivpcell#20gpdk090	L=1e-07	W=2.4e-07
+ AD=1.44e-14	AS=6.72e-14	PD=3.6e-07	PS=1.04e-06	simW=2.4e-07 fw=2.4e-07
MI1/I201/I0/avD1_2	I1/I201/I0/avC7#10	I1/avC7#69
+ I1/I201/I0/avC10	gnd!#27	nmos1v#20ivpcell#20gpdk090	L=1e-07
+ W=2.4e-07
+ AD=6.72e-14	AS=1.44e-14	PD=1.04e-06	PS=3.6e-07
+ simW=2.4e-07 fw=2.4e-07
MI1/I202/I1/avD1_1	I1/avC8#5	I1/avC6#12	vdd!#62	gnd!#27
+ nmos1v#20ivpcell#20gpdk090	L=1e-07	W=3e-07
+ AD=4.8e-14	AS=8.4e-14	PD=6.2e-07	PS=1.16e-06	simW=3e-07 fw=3e-07
MI1/I202/I1/avD1_2	I1/I202/avC10#2	Set#35	I1/avC8#5	gnd!#27
+ nmos1v#20ivpcell#20gpdk090	L=1e-07	W=3e-07
+ AD=8.4e-14	AS=4.8e-14	PD=1.16e-06	PS=6.2e-07	simW=3e-07 fw=3e-07
MI1/I202/I0/avD1_1	I1/I202/I0/avC10	I1/avC12#4	gnd!#522
+ gnd!#27	nmos1v#20ivpcell#20gpdk090	L=1e-07	W=2.4e-07
+ AD=1.44e-14	AS=6.72e-14	PD=3.6e-07	PS=1.04e-06	simW=2.4e-07 fw=2.4e-07
MI1/I202/I0/avD1_2	I1/I202/I0/avC7#10	I1/avC7#38
+ I1/I202/I0/avC10	gnd!#27	nmos1v#20ivpcell#20gpdk090	L=1e-07
+ W=2.4e-07
+ AD=6.72e-14	AS=1.44e-14	PD=1.04e-06	PS=3.6e-07
+ simW=2.4e-07 fw=2.4e-07
MI1/I199/I1/avD1_1	I1/avC19#14	I1/avC6#77	vdd!#620	gnd!#27
+ nmos1v#20ivpcell#20gpdk090	L=1e-07	W=3e-07
+ AD=4.8e-14	AS=8.4e-14	PD=6.2e-07	PS=1.16e-06	simW=3e-07 fw=3e-07
MI1/I199/I1/avD1_2	I1/I199/avC10#16	Set#325	I1/avC19#14
+ gnd!#27	nmos1v#20ivpcell#20gpdk090	L=1e-07	W=3e-07
+ AD=8.4e-14	AS=4.8e-14	PD=1.16e-06	PS=6.2e-07	simW=3e-07 fw=3e-07
MI1/I199/I0/avD1_1	I1/I199/I0/avC10	I1/avC17#20	gnd!#181
+ gnd!#27	nmos1v#20ivpcell#20gpdk090	L=1e-07	W=2.4e-07
+ AD=1.44e-14	AS=6.72e-14	PD=3.6e-07	PS=1.04e-06	simW=2.4e-07 fw=2.4e-07
MI1/I199/I0/avD1_2	I1/I199/I0/avC7#6	I1/avC7#149
+ I1/I199/I0/avC10	gnd!#27	nmos1v#20ivpcell#20gpdk090	L=1e-07
+ W=2.4e-07
+ AD=6.72e-14	AS=1.44e-14	PD=1.04e-06	PS=3.6e-07
+ simW=2.4e-07 fw=2.4e-07
MI1/I197/I1/avD1_1	I1/avC10#9	I1/avC6#40	vdd!#150	gnd!#27
+ nmos1v#20ivpcell#20gpdk090	L=1e-07	W=3e-07
+ AD=4.8e-14	AS=8.4e-14	PD=6.2e-07	PS=1.16e-06	simW=3e-07 fw=3e-07
MI1/I197/I1/avD1_2	I1/I197/avC10#16	Set#158	I1/avC10#9
+ gnd!#27	nmos1v#20ivpcell#20gpdk090	L=1e-07	W=3e-07
+ AD=8.4e-14	AS=4.8e-14	PD=1.16e-06	PS=6.2e-07	simW=3e-07 fw=3e-07
MI1/I197/I0/avD1_1	I1/I197/I0/avC10	I1/avC13#13	gnd!#440
+ gnd!#27	nmos1v#20ivpcell#20gpdk090	L=1e-07	W=2.4e-07
+ AD=1.44e-14	AS=6.72e-14	PD=3.6e-07	PS=1.04e-06	simW=2.4e-07 fw=2.4e-07
MI1/I197/I0/avD1_2	I1/I197/I0/avC7#6	I1/avC7#55
+ I1/I197/I0/avC10	gnd!#27	nmos1v#20ivpcell#20gpdk090	L=1e-07
+ W=2.4e-07
+ AD=6.72e-14	AS=1.44e-14	PD=1.04e-06	PS=3.6e-07
+ simW=2.4e-07 fw=2.4e-07
MI1/I196/I1/avD1_1	I1/avC13#6	I1/avC6#20	vdd!#109	gnd!#27
+ nmos1v#20ivpcell#20gpdk090	L=1e-07	W=3e-07
+ AD=4.8e-14	AS=8.4e-14	PD=6.2e-07	PS=1.16e-06	simW=3e-07 fw=3e-07
MI1/I196/I1/avD1_2	I1/I196/avC10#16	Set#105	I1/avC13#6
+ gnd!#27	nmos1v#20ivpcell#20gpdk090	L=1e-07	W=3e-07
+ AD=8.4e-14	AS=4.8e-14	PD=1.16e-06	PS=6.2e-07	simW=3e-07 fw=3e-07
MI1/I196/I0/avD1_1	I1/I196/I0/avC10	avC11#34	gnd!#509
+ gnd!#27	nmos1v#20ivpcell#20gpdk090	L=1e-07	W=2.4e-07
+ AD=1.44e-14	AS=6.72e-14	PD=3.6e-07	PS=1.04e-06	simW=2.4e-07 fw=2.4e-07
MI1/I196/I0/avD1_2	I1/I196/I0/avC7#6	I1/avC7#25
+ I1/I196/I0/avC10	gnd!#27	nmos1v#20ivpcell#20gpdk090	L=1e-07
+ W=2.4e-07
+ AD=6.72e-14	AS=1.44e-14	PD=1.04e-06	PS=3.6e-07
+ simW=2.4e-07 fw=2.4e-07
MI1/I203/I1/avD1_1	I1/avC11#5	I1/avC6#3	vdd!#25	gnd!#27
+ nmos1v#20ivpcell#20gpdk090	L=1e-07	W=3e-07
+ AD=4.8e-14	AS=8.4e-14	PD=6.2e-07	PS=1.16e-06	simW=3e-07 fw=3e-07
MI1/I203/I1/avD1_2	I1/I203/avC10	Set#20	I1/avC11#5	gnd!#27
+ nmos1v#20ivpcell#20gpdk090	L=1e-07	W=3e-07
+ AD=8.4e-14	AS=4.8e-14	PD=1.16e-06	PS=6.2e-07	simW=3e-07 fw=3e-07
MI1/I203/I0/avD1_1	I1/I203/I0/avC10	I1/avC8#3	gnd!#525
+ gnd!#27	nmos1v#20ivpcell#20gpdk090	L=1e-07	W=2.4e-07
+ AD=1.44e-14	AS=6.72e-14	PD=3.6e-07	PS=1.04e-06	simW=2.4e-07 fw=2.4e-07
MI1/I203/I0/avD1_2	I1/I203/I0/avC7#10	I1/avC7#14
+ I1/I203/I0/avC10	gnd!#27	nmos1v#20ivpcell#20gpdk090	L=1e-07
+ W=2.4e-07
+ AD=6.72e-14	AS=1.44e-14	PD=1.04e-06	PS=3.6e-07
+ simW=2.4e-07 fw=2.4e-07
MI0/I33/avD1_1	I0/I33/avC7#9	avC10#36	gnd!#548	gnd!#27
+ nmos1v#20ivpcell#20gpdk090	L=1e-07	W=2.4e-07
+ AD=3.84e-14	AS=6.72e-14	PD=5.6e-07	PS=1.04e-06	simW=2.4e-07 fw=2.4e-07
MI0/I33/avD1_2	I0/avC12	I0/avC10#13	I0/I33/avC7#9	gnd!#27
+ nmos1v#20ivpcell#20gpdk090	L=1e-07	W=2.4e-07
+ AD=6.72e-14	AS=3.84e-14	PD=1.04e-06	PS=5.6e-07	simW=2.4e-07 fw=2.4e-07
MI0/I33/avD1_3	I0/I33/avC6	I0/avC10#11	gnd!#545	gnd!#27
+ nmos1v#20ivpcell#20gpdk090	L=1e-07	W=4.8e-07
+ AD=1.344e-13	AS=1.344e-13	PD=1.52e-06	PS=1.52e-06	simW=4.8e-07 fw=4.8e-07
MI0/I33/avD1_4	I0/I33/avC8	I0/I33/avC6#10	I0/avC12#9	gnd!#27
+ nmos1v#20ivpcell#20gpdk090	L=1e-07	W=3.6e-07
+ AD=2.16e-14	AS=1.008e-13	PD=4.8e-07	PS=1.28e-06	simW=3.6e-07 fw=3.6e-07
MI0/I33/avD1_5	gnd!#497	I0/I33/avC7#14	I0/I33/avC8	gnd!#27
+ nmos1v#20ivpcell#20gpdk090	L=1e-07	W=3.6e-07
+ AD=1.008e-13	AS=2.16e-14	PD=1.28e-06	PS=4.8e-07	simW=3.6e-07 fw=3.6e-07
MI0/I11/avD1_1	avC10#23	I0/avC7#4	gnd!#479	gnd!#27
+ nmos1v#20ivpcell#20gpdk090	L=1e-07	W=2.4e-07
+ AD=6.72e-14	AS=6.72e-14	PD=1.04e-06	PS=1.04e-06	simW=2.4e-07 fw=2.4e-07
MI0/I7/avD1_1	I0/avC7#5	I0/avC11#4	gnd!#458	gnd!#27
+ nmos1v#20ivpcell#20gpdk090	L=1e-07	W=1.2e-07
+ AD=6.96e-14	AS=6.96e-14	PD=1.16e-06	PS=1.16e-06	simW=1.2e-07 fw=1.2e-07
MI0/I14/I1/avD1_1	I0/avC15#5	I0/avC9#55	vdd!#264	gnd!#27
+ nmos1v#20ivpcell#20gpdk090	L=1e-07	W=3e-07
+ AD=4.8e-14	AS=8.4e-14	PD=6.2e-07	PS=1.16e-06	simW=3e-07 fw=3e-07
MI0/I14/I1/avD1_2	I0/I14/avC10#2	Set#281	I0/avC15#5	gnd!#27
+ nmos1v#20ivpcell#20gpdk090	L=1e-07	W=3e-07
+ AD=8.4e-14	AS=4.8e-14	PD=1.16e-06	PS=6.2e-07	simW=3e-07 fw=3e-07
MI0/I14/I0/avD1_1	I0/I14/I0/avC10	I0/avC16#12	gnd!#153
+ gnd!#27	nmos1v#20ivpcell#20gpdk090	L=1e-07	W=2.4e-07
+ AD=1.44e-14	AS=6.72e-14	PD=3.6e-07	PS=1.04e-06	simW=2.4e-07 fw=2.4e-07
MI0/I14/I0/avD1_2	I0/I14/I0/avC7#10	I0/avC6#150	I0/I14/I0/avC10
+ gnd!#27	nmos1v#20ivpcell#20gpdk090	L=1e-07	W=2.4e-07
+ AD=6.72e-14	AS=1.44e-14	PD=1.04e-06	PS=3.6e-07	simW=2.4e-07 fw=2.4e-07
MI0/I15/I1/avD1_1	I0/avC14#5	I0/avC9#47	vdd!#216	gnd!#27
+ nmos1v#20ivpcell#20gpdk090	L=1e-07	W=3e-07
+ AD=4.8e-14	AS=8.4e-14	PD=6.2e-07	PS=1.16e-06	simW=3e-07 fw=3e-07
MI0/I15/I1/avD1_2	I0/I15/avC10#2	Set#220	I0/avC14#5	gnd!#27
+ nmos1v#20ivpcell#20gpdk090	L=1e-07	W=3e-07
+ AD=8.4e-14	AS=4.8e-14	PD=1.16e-06	PS=6.2e-07	simW=3e-07 fw=3e-07
MI0/I15/I0/avD1_1	I0/I15/I0/avC10	I0/avC15#4	gnd!#217
+ gnd!#27	nmos1v#20ivpcell#20gpdk090	L=1e-07	W=2.4e-07
+ AD=1.44e-14	AS=6.72e-14	PD=3.6e-07	PS=1.04e-06	simW=2.4e-07 fw=2.4e-07
MI0/I15/I0/avD1_2	I0/I15/I0/avC7#10	I0/avC6#121	I0/I15/I0/avC10
+ gnd!#27	nmos1v#20ivpcell#20gpdk090	L=1e-07	W=2.4e-07
+ AD=6.72e-14	AS=1.44e-14	PD=1.04e-06	PS=3.6e-07	simW=2.4e-07 fw=2.4e-07
MI0/I16/I1/avD1_1	I0/avC13#5	I0/avC9#20	vdd!#171	gnd!#27
+ nmos1v#20ivpcell#20gpdk090	L=1e-07	W=3e-07
+ AD=4.8e-14	AS=8.4e-14	PD=6.2e-07	PS=1.16e-06	simW=3e-07 fw=3e-07
MI0/I16/I1/avD1_2	I0/I16/avC10#2	Set#153	I0/avC13#5	gnd!#27
+ nmos1v#20ivpcell#20gpdk090	L=1e-07	W=3e-07
+ AD=8.4e-14	AS=4.8e-14	PD=1.16e-06	PS=6.2e-07	simW=3e-07 fw=3e-07
MI0/I16/I0/avD1_1	I0/I16/I0/avC10	I0/avC14#4	gnd!#313
+ gnd!#27	nmos1v#20ivpcell#20gpdk090	L=1e-07	W=2.4e-07
+ AD=1.44e-14	AS=6.72e-14	PD=3.6e-07	PS=1.04e-06	simW=2.4e-07 fw=2.4e-07
MI0/I16/I0/avD1_2	I0/I16/I0/avC7#10	I0/avC6#60	I0/I16/I0/avC10
+ gnd!#27	nmos1v#20ivpcell#20gpdk090	L=1e-07	W=2.4e-07
+ AD=6.72e-14	AS=1.44e-14	PD=1.04e-06	PS=3.6e-07	simW=2.4e-07 fw=2.4e-07
MI0/I18/I1/avD1_1	I0/avC11#5	I0/avC9#12	vdd!#131	gnd!#27
+ nmos1v#20ivpcell#20gpdk090	L=1e-07	W=3e-07
+ AD=4.8e-14	AS=8.4e-14	PD=6.2e-07	PS=1.16e-06	simW=3e-07 fw=3e-07
MI0/I18/I1/avD1_2	I0/I18/avC10#2	Set#98	I0/avC11#5	gnd!#27
+ nmos1v#20ivpcell#20gpdk090	L=1e-07	W=3e-07
+ AD=8.4e-14	AS=4.8e-14	PD=1.16e-06	PS=6.2e-07	simW=3e-07 fw=3e-07
MI0/I18/I0/avD1_1	I0/I18/I0/avC10	I0/avC13#4	gnd!#394
+ gnd!#27	nmos1v#20ivpcell#20gpdk090	L=1e-07	W=2.4e-07
+ AD=1.44e-14	AS=6.72e-14	PD=3.6e-07	PS=1.04e-06	simW=2.4e-07 fw=2.4e-07
MI0/I18/I0/avD1_2	I0/I18/I0/avC7#10	I0/avC6#26	I0/I18/I0/avC10
+ gnd!#27	nmos1v#20ivpcell#20gpdk090	L=1e-07	W=2.4e-07
+ AD=6.72e-14	AS=1.44e-14	PD=1.04e-06	PS=3.6e-07	simW=2.4e-07 fw=2.4e-07
MI0/I13/I1/avD1_1	I0/avC16#6	I0/avC9#66	vdd!#274	gnd!#27
+ nmos1v#20ivpcell#20gpdk090	L=1e-07	W=3e-07
+ AD=4.8e-14	AS=8.4e-14	PD=6.2e-07	PS=1.16e-06	simW=3e-07 fw=3e-07
MI0/I13/I1/avD1_2	I0/I13/avC10#16	Set#297	I0/avC16#6
+ gnd!#27	nmos1v#20ivpcell#20gpdk090	L=1e-07	W=3e-07
+ AD=8.4e-14	AS=4.8e-14	PD=1.16e-06	PS=6.2e-07	simW=3e-07 fw=3e-07
MI0/I13/I0/avD1_1	I0/I13/I0/avC10	I0/avC8#18	gnd!#288
+ gnd!#27	nmos1v#20ivpcell#20gpdk090	L=1e-07	W=2.4e-07
+ AD=1.44e-14	AS=6.72e-14	PD=3.6e-07	PS=1.04e-06	simW=2.4e-07 fw=2.4e-07
MI0/I13/I0/avD1_2	I0/I13/I0/avC7#10	I0/avC6#130	I0/I13/I0/avC10
+ gnd!#27	nmos1v#20ivpcell#20gpdk090	L=1e-07	W=2.4e-07
+ AD=6.72e-14	AS=1.44e-14	PD=1.04e-06	PS=3.6e-07	simW=2.4e-07 fw=2.4e-07
MI0/I6/I1/avD1_1	I0/avC8#6	I0/avC9#31	vdd!#181	gnd!#27
+ nmos1v#20ivpcell#20gpdk090	L=1e-07	W=3e-07
+ AD=4.8e-14	AS=8.4e-14	PD=6.2e-07	PS=1.16e-06	simW=3e-07 fw=3e-07
MI0/I6/I1/avD1_2	I0/I6/avC10#16	Set#180	I0/avC8#6	gnd!#27
+ nmos1v#20ivpcell#20gpdk090	L=1e-07	W=3e-07
+ AD=8.4e-14	AS=4.8e-14	PD=1.16e-06	PS=6.2e-07	simW=3e-07 fw=3e-07
MI0/I6/I0/avD1_1	I0/I6/I0/avC10	I0/avC12#17	gnd!#494	gnd!#27
+ nmos1v#20ivpcell#20gpdk090	L=1e-07	W=2.4e-07
+ AD=1.44e-14	AS=6.72e-14	PD=3.6e-07	PS=1.04e-06	simW=2.4e-07 fw=2.4e-07
MI0/I6/I0/avD1_2	I0/I6/I0/avC7#6	I0/avC6#25	I0/I6/I0/avC10
+ gnd!#27	nmos1v#20ivpcell#20gpdk090	L=1e-07	W=2.4e-07
+ AD=6.72e-14	AS=1.44e-14	PD=1.04e-06	PS=3.6e-07	simW=2.4e-07 fw=2.4e-07
MI0/I17/I1/avD1_1	I0/avC10#6	I0/avC9#7	vdd!#88	gnd!#27
+ nmos1v#20ivpcell#20gpdk090	L=1e-07	W=3e-07
+ AD=4.8e-14	AS=8.4e-14	PD=6.2e-07	PS=1.16e-06	simW=3e-07 fw=3e-07
MI0/I17/I1/avD1_2	I0/I17/avC10#16	Set#67	I0/avC10#6	gnd!#27
+ nmos1v#20ivpcell#20gpdk090	L=1e-07	W=3e-07
+ AD=8.4e-14	AS=4.8e-14	PD=1.16e-06	PS=6.2e-07	simW=3e-07 fw=3e-07
MI0/I17/I0/avD1_1	I0/I17/I0/avC10	avC10#22	gnd!#598
+ gnd!#27	nmos1v#20ivpcell#20gpdk090	L=1e-07	W=2.4e-07
+ AD=1.44e-14	AS=6.72e-14	PD=3.6e-07	PS=1.04e-06	simW=2.4e-07 fw=2.4e-07
MI0/I17/I0/avD1_2	I0/I17/I0/avC7#6	I0/avC6#2	I0/I17/I0/avC10
+ gnd!#27	nmos1v#20ivpcell#20gpdk090	L=1e-07	W=2.4e-07
+ AD=6.72e-14	AS=1.44e-14	PD=1.04e-06	PS=3.6e-07	simW=2.4e-07 fw=2.4e-07
MI3/I398/avD1_1	I3/I398/avC7#8	avC12#61	gnd!#65	gnd!#27
+ nmos1v#20ivpcell#20gpdk090	L=1e-07	W=2.4e-07
+ AD=3.84e-14	AS=6.72e-14	PD=5.6e-07	PS=1.04e-06	simW=2.4e-07 fw=2.4e-07
MI3/I398/avD1_2	I3/avC17	I3/avC16#13	I3/I398/avC7#8	gnd!#27
+ nmos1v#20ivpcell#20gpdk090	L=1e-07	W=2.4e-07
+ AD=6.72e-14	AS=3.84e-14	PD=1.04e-06	PS=5.6e-07	simW=2.4e-07 fw=2.4e-07
MI3/I398/avD1_3	I3/I398/avC6	I3/avC16#11	gnd!#62	gnd!#27
+ nmos1v#20ivpcell#20gpdk090	L=1e-07	W=4.8e-07
+ AD=1.344e-13	AS=1.344e-13	PD=1.52e-06	PS=1.52e-06	simW=4.8e-07 fw=4.8e-07
MI3/I398/avD1_4	I3/I398/avC8	I3/I398/avC6#10	I3/avC17#9	gnd!#27
+ nmos1v#20ivpcell#20gpdk090	L=1e-07	W=3.6e-07
+ AD=2.16e-14	AS=1.008e-13	PD=4.8e-07	PS=1.28e-06	simW=3.6e-07 fw=3.6e-07
MI3/I398/avD1_5	gnd!#59	I3/I398/avC7#18	I3/I398/avC8	gnd!#27
+ nmos1v#20ivpcell#20gpdk090	L=1e-07	W=3.6e-07
+ AD=1.008e-13	AS=2.16e-14	PD=1.28e-06	PS=4.8e-07	simW=3.6e-07 fw=3.6e-07
MI3/I26/avD1_1	avC12#47	I3/avC6#12	gnd!#110	gnd!#27
+ nmos1v#20ivpcell#20gpdk090	L=1e-07	W=2.4e-07
+ AD=6.72e-14	AS=6.72e-14	PD=1.04e-06	PS=1.04e-06	simW=2.4e-07 fw=2.4e-07
MI3/I25/avD1_1	I3/avC6#7	I3/avC11#16	gnd!#113	gnd!#27
+ nmos1v#20ivpcell#20gpdk090	L=1e-07	W=1.2e-07
+ AD=6.96001e-14	AS=6.96001e-14	PD=1.16e-06	PS=1.16e-06	simW=1.2e-07 fw=1.2e-07
MI3/I390/I1/avD1_1	I3/avC20#5	I3/avC8#106	vdd!#617	gnd!#27
+ nmos1v#20ivpcell#20gpdk090	L=1e-07	W=3e-07
+ AD=4.80001e-14	AS=8.40001e-14	PD=6.2e-07	PS=1.16e-06	simW=3e-07 fw=3e-07
MI3/I390/I1/avD1_2	I3/I390/avC10#2	Set#309	I3/avC20#5
+ gnd!#27	nmos1v#20ivpcell#20gpdk090	L=1e-07	W=3e-07
+ AD=8.40001e-14	AS=4.80001e-14	PD=1.16e-06	PS=6.2e-07	simW=3e-07 fw=3e-07
MI3/I390/I0/avD1_1	I3/I390/I0/avC10	I3/avC10#16	gnd!#23
+ gnd!#27	nmos1v#20ivpcell#20gpdk090	L=1e-07	W=2.4e-07
+ AD=1.44001e-14	AS=6.72e-14	PD=3.6e-07	PS=1.04e-06	simW=2.4e-07 fw=2.4e-07
MI3/I390/I0/avD1_2	I3/I390/I0/avC7#10	I3/avC7#212
+ I3/I390/I0/avC10	gnd!#27	nmos1v#20ivpcell#20gpdk090	L=1e-07
+ W=2.4e-07
+ AD=6.72e-14	AS=1.44001e-14	PD=1.04e-06	PS=3.6e-07
+ simW=2.4e-07 fw=2.4e-07
MI3/I391/I1/avD1_1	I3/avC18#5	I3/avC8#86	vdd!#259	gnd!#27
+ nmos1v#20ivpcell#20gpdk090	L=1e-07	W=3e-07
+ AD=4.8e-14	AS=8.40001e-14	PD=6.2e-07	PS=1.16e-06	simW=3e-07 fw=3e-07
MI3/I391/I1/avD1_2	I3/I391/avC10#2	Set#276	I3/avC18#5
+ gnd!#27	nmos1v#20ivpcell#20gpdk090	L=1e-07	W=3e-07
+ AD=8.40001e-14	AS=4.80001e-14	PD=1.16e-06	PS=6.2e-07	simW=3e-07 fw=3e-07
MI3/I391/I0/avD1_1	I3/I391/I0/avC10	I3/avC20#4	gnd!#118
+ gnd!#27	nmos1v#20ivpcell#20gpdk090	L=1e-07	W=2.4e-07
+ AD=1.44001e-14	AS=6.72e-14	PD=3.6e-07	PS=1.04e-06	simW=2.4e-07 fw=2.4e-07
MI3/I391/I0/avD1_2	I3/I391/I0/avC7#10	I3/avC7#188
+ I3/I391/I0/avC10	gnd!#27	nmos1v#20ivpcell#20gpdk090	L=1e-07
+ W=2.4e-07
+ AD=6.72e-14	AS=1.44001e-14	PD=1.04e-06	PS=3.6e-07
+ simW=2.4e-07 fw=2.4e-07
MI3/I392/I1/avD1_1	I3/avC15#5	I3/avC8#76	vdd!#209	gnd!#27
+ nmos1v#20ivpcell#20gpdk090	L=1e-07	W=3e-07
+ AD=4.8e-14	AS=8.40001e-14	PD=6.2e-07	PS=1.16e-06	simW=3e-07 fw=3e-07
MI3/I392/I1/avD1_2	I3/I392/avC10#2	Set#215	I3/avC15#5
+ gnd!#27	nmos1v#20ivpcell#20gpdk090	L=1e-07	W=3e-07
+ AD=8.40001e-14	AS=4.80001e-14	PD=1.16e-06	PS=6.2e-07	simW=3e-07 fw=3e-07
MI3/I392/I0/avD1_1	I3/I392/I0/avC10	I3/avC18#4	gnd!#144
+ gnd!#27	nmos1v#20ivpcell#20gpdk090	L=1e-07	W=2.4e-07
+ AD=1.44001e-14	AS=6.72e-14	PD=3.6e-07	PS=1.04e-06	simW=2.4e-07 fw=2.4e-07
MI3/I392/I0/avD1_2	I3/I392/I0/avC7#10	I3/avC7#158
+ I3/I392/I0/avC10	gnd!#27	nmos1v#20ivpcell#20gpdk090	L=1e-07
+ W=2.4e-07
+ AD=6.72e-14	AS=1.44001e-14	PD=1.04e-06	PS=3.6e-07
+ simW=2.4e-07 fw=2.4e-07
MI3/I393/I1/avD1_1	I3/avC14#5	I3/avC8#50	vdd!#164	gnd!#27
+ nmos1v#20ivpcell#20gpdk090	L=1e-07	W=3e-07
+ AD=4.8e-14	AS=8.40001e-14	PD=6.2e-07	PS=1.16e-06	simW=3e-07 fw=3e-07
MI3/I393/I1/avD1_2	I3/I393/avC10#2	Set#142	I3/avC14#5
+ gnd!#27	nmos1v#20ivpcell#20gpdk090	L=1e-07	W=3e-07
+ AD=8.40001e-14	AS=4.80001e-14	PD=1.16e-06	PS=6.2e-07	simW=3e-07 fw=3e-07
MI3/I393/I0/avD1_1	I3/I393/I0/avC10	I3/avC15#4	gnd!#207
+ gnd!#27	nmos1v#20ivpcell#20gpdk090	L=1e-07	W=2.4e-07
+ AD=1.44001e-14	AS=6.72e-14	PD=3.6e-07	PS=1.04e-06	simW=2.4e-07 fw=2.4e-07
MI3/I393/I0/avD1_2	I3/I393/I0/avC7#10	I3/avC7#131
+ I3/I393/I0/avC10	gnd!#27	nmos1v#20ivpcell#20gpdk090	L=1e-07
+ W=2.4e-07
+ AD=6.72e-14	AS=1.44001e-14	PD=1.04e-06	PS=3.6e-07
+ simW=2.4e-07 fw=2.4e-07
MI3/I394/I1/avD1_1	I3/avC13#5	I3/avC8#34	vdd!#126	gnd!#27
+ nmos1v#20ivpcell#20gpdk090	L=1e-07	W=3e-07
+ AD=4.8e-14	AS=8.40001e-14	PD=6.2e-07	PS=1.16e-06	simW=3e-07 fw=3e-07
MI3/I394/I1/avD1_2	I3/I394/avC10#2	Set#93	I3/avC13#5	gnd!#27
+ nmos1v#20ivpcell#20gpdk090	L=1e-07	W=3e-07
+ AD=8.40001e-14	AS=4.80001e-14	PD=1.16e-06	PS=6.2e-07	simW=3e-07 fw=3e-07
MI3/I394/I0/avD1_1	I3/I394/I0/avC10	I3/avC14#4	gnd!#285
+ gnd!#27	nmos1v#20ivpcell#20gpdk090	L=1e-07	W=2.4e-07
+ AD=1.44001e-14	AS=6.72e-14	PD=3.6e-07	PS=1.04e-06	simW=2.4e-07 fw=2.4e-07
MI3/I394/I0/avD1_2	I3/I394/I0/avC7#10	I3/avC7#91
+ I3/I394/I0/avC10	gnd!#27	nmos1v#20ivpcell#20gpdk090	L=1e-07
+ W=2.4e-07
+ AD=6.72e-14	AS=1.44001e-14	PD=1.04e-06	PS=3.6e-07
+ simW=2.4e-07 fw=2.4e-07
MI3/I399/I1/avD1_1	I3/avC12#5	I3/avC8#14	vdd!#67	gnd!#27
+ nmos1v#20ivpcell#20gpdk090	L=1e-07	W=3e-07
+ AD=4.8e-14	AS=8.40001e-14	PD=6.2e-07	PS=1.16e-06	simW=3e-07 fw=3e-07
MI3/I399/I1/avD1_2	I3/I399/avC10#2	Set#41	I3/avC12#5	gnd!#27
+ nmos1v#20ivpcell#20gpdk090	L=1e-07	W=3e-07
+ AD=8.40001e-14	AS=4.80001e-14	PD=1.16e-06	PS=6.2e-07	simW=3e-07 fw=3e-07
MI3/I399/I0/avD1_1	I3/I399/I0/avC10	I3/avC13#4	gnd!#387
+ gnd!#27	nmos1v#20ivpcell#20gpdk090	L=1e-07	W=2.4e-07
+ AD=1.44001e-14	AS=6.72e-14	PD=3.6e-07	PS=1.04e-06	simW=2.4e-07 fw=2.4e-07
MI3/I399/I0/avD1_2	I3/I399/I0/avC7#10	I3/avC7#43
+ I3/I399/I0/avC10	gnd!#27	nmos1v#20ivpcell#20gpdk090	L=1e-07
+ W=2.4e-07
+ AD=6.72e-14	AS=1.44001e-14	PD=1.04e-06	PS=3.6e-07
+ simW=2.4e-07 fw=2.4e-07
MI3/I400/I1/avD1_1	I3/avC11	I3/avC8#4	vdd!#17	gnd!#27
+ nmos1v#20ivpcell#20gpdk090	L=1e-07	W=3e-07
+ AD=4.8e-14	AS=8.40001e-14	PD=6.2e-07	PS=1.16e-06	simW=3e-07 fw=3e-07
MI3/I400/I1/avD1_2	I3/I400/avC10#2	Set#11	I3/avC11	gnd!#27
+ nmos1v#20ivpcell#20gpdk090	L=1e-07	W=3e-07
+ AD=8.40001e-14	AS=4.80001e-14	PD=1.16e-06	PS=6.2e-07	simW=3e-07 fw=3e-07
MI3/I400/I0/avD1_1	I3/I400/I0/avC10	I3/avC12#4	gnd!#447
+ gnd!#27	nmos1v#20ivpcell#20gpdk090	L=1e-07	W=2.4e-07
+ AD=1.44001e-14	AS=6.72e-14	PD=3.6e-07	PS=1.04e-06	simW=2.4e-07 fw=2.4e-07
MI3/I400/I0/avD1_2	I3/I400/I0/avC7#10	I3/avC7#15
+ I3/I400/I0/avC10	gnd!#27	nmos1v#20ivpcell#20gpdk090	L=1e-07
+ W=2.4e-07
+ AD=6.72e-14	AS=1.44001e-14	PD=1.04e-06	PS=3.6e-07
+ simW=2.4e-07 fw=2.4e-07
MI3/I389/I1/avD1_1	I3/avC10#6	I3/avC8#120	vdd!#817	gnd!#27
+ nmos1v#20ivpcell#20gpdk090	L=1e-07	W=3e-07
+ AD=4.8e-14	AS=8.40001e-14	PD=6.2e-07	PS=1.16e-06	simW=3e-07 fw=3e-07
MI3/I389/I1/avD1_2	I3/I389/avC10#16	Set#334	I3/avC10#6
+ gnd!#27	nmos1v#20ivpcell#20gpdk090	L=1e-07	W=3e-07
+ AD=8.40001e-14	AS=4.80001e-14	PD=1.16e-06	PS=6.2e-07	simW=3e-07 fw=3e-07
MI3/I389/I0/avD1_1	I3/I389/I0/avC10	I3/avC19#13	gnd!#47
+ gnd!#27	nmos1v#20ivpcell#20gpdk090	L=1e-07	W=2.4e-07
+ AD=1.44001e-14	AS=6.72e-14	PD=3.6e-07	PS=1.04e-06	simW=2.4e-07 fw=2.4e-07
MI3/I389/I0/avD1_2	I3/I389/I0/avC7#6	I3/avC7#194
+ I3/I389/I0/avC10	gnd!#27	nmos1v#20ivpcell#20gpdk090	L=1e-07
+ W=2.4e-07
+ AD=6.72e-14	AS=1.44001e-14	PD=1.04e-06	PS=3.6e-07
+ simW=2.4e-07 fw=2.4e-07
MI3/I396/I1/avD1_1	I3/avC19#6	I3/avC8#100	vdd!#267	gnd!#27
+ nmos1v#20ivpcell#20gpdk090	L=1e-07	W=3e-07
+ AD=4.8e-14	AS=8.40001e-14	PD=6.2e-07	PS=1.16e-06	simW=3e-07 fw=3e-07
MI3/I396/I1/avD1_2	I3/I396/avC10#16	Set#290	I3/avC19#6
+ gnd!#27	nmos1v#20ivpcell#20gpdk090	L=1e-07	W=3e-07
+ AD=8.40001e-14	AS=4.80001e-14	PD=1.16e-06	PS=6.2e-07	simW=3e-07 fw=3e-07
MI3/I396/I0/avD1_1	I3/I396/I0/avC10	I3/avC17#20	gnd!#56
+ gnd!#27	nmos1v#20ivpcell#20gpdk090	L=1e-07	W=2.4e-07
+ AD=1.44001e-14	AS=6.72e-14	PD=3.6e-07	PS=1.04e-06	simW=2.4e-07 fw=2.4e-07
MI3/I396/I0/avD1_2	I3/I396/I0/avC7#6	I3/avC7#160
+ I3/I396/I0/avC10	gnd!#27	nmos1v#20ivpcell#20gpdk090	L=1e-07
+ W=2.4e-07
+ AD=6.72e-14	AS=1.44001e-14	PD=1.04e-06	PS=3.6e-07
+ simW=2.4e-07 fw=2.4e-07
MI3/I397/I1/avD1_1	I3/avC16#6	I3/avC8#71	vdd!#197	gnd!#27
+ nmos1v#20ivpcell#20gpdk090	L=1e-07	W=3e-07
+ AD=4.8e-14	AS=8.40001e-14	PD=6.2e-07	PS=1.16e-06	simW=3e-07 fw=3e-07
MI3/I397/I1/avD1_2	I3/I397/avC10#16	Set#227	I3/avC16#6
+ gnd!#27	nmos1v#20ivpcell#20gpdk090	L=1e-07	W=3e-07
+ AD=8.40001e-14	AS=4.80001e-14	PD=1.16e-06	PS=6.2e-07	simW=3e-07 fw=3e-07
MI3/I397/I0/avD1_1	I3/I397/I0/avC10	I3/avC9#18	gnd!#74
+ gnd!#27	nmos1v#20ivpcell#20gpdk090	L=1e-07	W=2.4e-07
+ AD=1.44001e-14	AS=6.72e-14	PD=3.6e-07	PS=1.04e-06	simW=2.4e-07 fw=2.4e-07
MI3/I397/I0/avD1_2	I3/I397/I0/avC7#10	I3/avC7#119
+ I3/I397/I0/avC10	gnd!#27	nmos1v#20ivpcell#20gpdk090	L=1e-07
+ W=2.4e-07
+ AD=6.72e-14	AS=1.44001e-14	PD=1.04e-06	PS=3.6e-07
+ simW=2.4e-07 fw=2.4e-07
MI3/I395/I1/avD1_1	I3/avC9#5	I3/avC8#28	vdd!#91	gnd!#27
+ nmos1v#20ivpcell#20gpdk090	L=1e-07	W=3e-07
+ AD=4.8e-14	AS=8.40001e-14	PD=6.2e-07	PS=1.16e-06	simW=3e-07 fw=3e-07
MI3/I395/I1/avD1_2	I3/I395/avC10#16	Set#71	I3/avC9#5	gnd!#27
+ nmos1v#20ivpcell#20gpdk090	L=1e-07	W=3e-07
+ AD=8.40001e-14	AS=4.80001e-14	PD=1.16e-06	PS=6.2e-07	simW=3e-07 fw=3e-07
MI3/I395/I0/avD1_1	I3/I395/I0/avC10	avC12#55	gnd!#107
+ gnd!#27	nmos1v#20ivpcell#20gpdk090	L=1e-07	W=2.4e-07
+ AD=1.44001e-14	AS=6.72e-14	PD=3.6e-07	PS=1.04e-06	simW=2.4e-07 fw=2.4e-07
MI3/I395/I0/avD1_2	I3/I395/I0/avC7#6	I3/avC7#17
+ I3/I395/I0/avC10	gnd!#27	nmos1v#20ivpcell#20gpdk090	L=1e-07
+ W=2.4e-07
+ AD=6.72e-14	AS=1.44001e-14	PD=1.04e-06	PS=3.6e-07
+ simW=2.4e-07 fw=2.4e-07
MI282/I26/avD1_1	I282/I26/avC8#12	avC10#3	gnd!#574
+ gnd!#27	nmos1v#20ivpcell#20gpdk090	L=1e-07	W=2.4e-07
+ AD=6.72e-14	AS=6.72e-14	PD=1.04e-06	PS=1.04e-06	simW=2.4e-07 fw=2.4e-07
MI282/I26/avD1_2	I282/I26/avC9#9	avC12#28	gnd!#558
+ gnd!#27	nmos1v#20ivpcell#20gpdk090	L=1e-07	W=2.4e-07
+ AD=6.72e-14	AS=6.72e-14	PD=1.04e-06	PS=1.04e-06	simW=2.4e-07 fw=2.4e-07
MI282/I26/avD1_3	I282/avC10#28	I282/I26/avC9#8	I282/I26/avC8#5
+ gnd!#27	nmos1v#20ivpcell#20gpdk090	L=1e-07	W=2.4e-07
+ AD=6.72e-14	AS=6.72e-14	PD=1.04e-06	PS=1.04e-06	simW=2.4e-07 fw=2.4e-07
MI282/I26/avD1_4	I282/I26/avC7#8	avC11#4	gnd!#571
+ gnd!#27	nmos1v#20ivpcell#20gpdk090	L=1e-07	W=2.4e-07
+ AD=6.72e-14	AS=6.72e-14	PD=1.04e-06	PS=1.04e-06	simW=2.4e-07 fw=2.4e-07
MI282/I26/avD1_5	I282/avC10#13	avC12#5	I282/I26/avC7	gnd!#27
+ nmos1v#20ivpcell#20gpdk090	L=1e-07	W=2.4e-07
+ AD=6.72e-14	AS=6.72e-14	PD=1.04e-06	PS=1.04e-06	simW=2.4e-07 fw=2.4e-07
MI282/I25/avD1_1	I282/I25/avC8#12	avC8#22	gnd!#542
+ gnd!#27	nmos1v#20ivpcell#20gpdk090	L=1e-07	W=2.4e-07
+ AD=6.72e-14	AS=6.72e-14	PD=1.04e-06	PS=1.04e-06	simW=2.4e-07 fw=2.4e-07
MI282/I25/avD1_2	I282/I25/avC9#9	avC12#32	gnd!#518
+ gnd!#27	nmos1v#20ivpcell#20gpdk090	L=1e-07	W=2.4e-07
+ AD=6.72e-14	AS=6.72e-14	PD=1.04e-06	PS=1.04e-06	simW=2.4e-07 fw=2.4e-07
MI282/I25/avD1_3	I282/avC11#26	I282/I25/avC9#8	I282/I25/avC8#5
+ gnd!#27	nmos1v#20ivpcell#20gpdk090	L=1e-07	W=2.4e-07
+ AD=6.72e-14	AS=6.72e-14	PD=1.04e-06	PS=1.04e-06	simW=2.4e-07 fw=2.4e-07
MI282/I25/avD1_4	I282/I25/avC7#8	avC12#14	gnd!#539
+ gnd!#27	nmos1v#20ivpcell#20gpdk090	L=1e-07	W=2.4e-07
+ AD=6.72e-14	AS=6.72e-14	PD=1.04e-06	PS=1.04e-06	simW=2.4e-07 fw=2.4e-07
MI282/I25/avD1_5	I282/avC11#12	avC12#6	I282/I25/avC7	gnd!#27
+ nmos1v#20ivpcell#20gpdk090	L=1e-07	W=2.4e-07
+ AD=6.72e-14	AS=6.72e-14	PD=1.04e-06	PS=1.04e-06	simW=2.4e-07 fw=2.4e-07
MI282/I27/avD1_5	I282/I27/avC7#17	avC8#19	gnd!#589
+ gnd!#27	nmos1v#20ivpcell#20gpdk090	L=1e-07	W=1.2e-07
+ AD=6.96001e-14	AS=6.96001e-14	PD=1.16e-06	PS=1.16e-06	simW=1.2e-07 fw=1.2e-07
MI326/avD1_1	B_OUT#4	avC9#4	gnd!#640	gnd!#27
+ nmos1v#20ivpcell#20gpdk090	L=1e-07	W=1.2e-07
+ AD=6.96001e-14	AS=6.96001e-14	PD=1.16e-06	PS=1.16e-06	simW=1.2e-07 fw=1.2e-07
MI315/avD1_1	I315/avC10	avC6#7	gnd!#625	gnd!#27
+ nmos1v#20ivpcell#20gpdk090	L=1e-07	W=2.4e-07
+ AD=1.44001e-14	AS=6.72e-14	PD=3.6e-07	PS=1.04e-06	simW=2.4e-07 fw=2.4e-07
MI315/avD1_2	I315/avC7#6	avC7#6	I315/avC10	gnd!#27
+ nmos1v#20ivpcell#20gpdk090	L=1e-07	W=2.4e-07
+ AD=6.72e-14	AS=1.44001e-14	PD=1.04e-06	PS=3.6e-07	simW=2.4e-07 fw=2.4e-07
MI0/I18/I0/avD1_3	I0/I18/I0/avC8#5	I0/I18/I0/avC7	gnd!#151
+ gnd!#27	nmos1v#20ivpcell#20gpdk090	L=1e-07	W=4.2e-07
+ AD=6.72e-14	AS=1.176e-13	PD=7.4e-07	PS=1.4e-06	M=2	simW=4.2e-07 fw=4.2e-07
MI0/I17/I0/avD1_5	I0/I17/avC10#6	CLK#156	I0/I17/I0/avC8	gnd!#27
+ nmos1v#20ivpcell#20gpdk090	L=1e-07	W=4.2e-07
+ AD=6.72e-14	AS=1.176e-13	PD=7.4e-07	PS=1.4e-06	M=2	simW=4.2e-07 fw=4.2e-07
MI282/I27/avD1_3	gnd!#3	I282/avC11#4	I282/I27/avC8#22	gnd!#27
+ nmos1v#20ivpcell#20gpdk090	L=1e-07	W=3e-07
+ AD=8.40001e-14	AS=4.80001e-14	PD=1.16e-06	PS=6.2e-07	M=2	simW=3e-07 fw=3e-07
MI1/I197/I0/avD1_5	I1/I197/avC10#6	CLK#338	I1/I197/I0/avC8
+ gnd!#27	nmos1v#20ivpcell#20gpdk090	L=1e-07	W=4.2e-07
+ AD=6.72e-14	AS=1.176e-13	PD=7.4e-07	PS=1.4e-06	M=2	simW=4.2e-07 fw=4.2e-07
MI2/I330/I0/avD1_5	I2/I330/avC10#6	CLK#143	I2/I330/I0/avC8
+ gnd!#27	nmos1v#20ivpcell#20gpdk090	L=1e-07	W=4.2e-07
+ AD=6.72e-14	AS=1.176e-13	PD=7.4e-07	PS=1.4e-06	M=2	simW=4.2e-07 fw=4.2e-07
MI315/avD1_3	I315/avC8#5	I315/avC7	gnd!	gnd!#27
+ nmos1v#20ivpcell#20gpdk090	L=1e-07	W=4.2e-07
+ AD=6.72e-14	AS=1.176e-13	PD=7.4e-07	PS=1.4e-06	M=2	simW=4.2e-07 fw=4.2e-07
MI282/I27/avD1_8	gnd!	I282/avC10#2	I282/I27/avC9#18	gnd!#27
+ nmos1v#20ivpcell#20gpdk090	L=1e-07	W=3e-07
+ AD=8.40001e-14	AS=4.80001e-14	PD=1.16e-06	PS=6.2e-07	M=2	simW=3e-07 fw=3e-07
MI3/I396/I0/avD1_3	I3/I396/I0/avC8#5	I3/I396/I0/avC7	gnd!#32
+ gnd!#27	nmos1v#20ivpcell#20gpdk090	L=1e-07	W=4.2e-07
+ AD=6.72e-14	AS=1.176e-13	PD=7.4e-07	PS=1.4e-06	M=2	simW=4.2e-07 fw=4.2e-07
MI1/I203/I0/avD1_5	I1/I203/avC10#16	CLK#64	I1/I203/I0/avC8
+ gnd!#27	nmos1v#20ivpcell#20gpdk090	L=1e-07	W=4.2e-07
+ AD=6.72e-14	AS=1.176e-13	PD=7.4e-07	PS=1.4e-06	M=2	simW=4.2e-07 fw=4.2e-07
MI1/I199/I0/avD1_5	I1/I199/avC10#6	CLK#733	I1/I199/I0/avC8
+ gnd!#27	nmos1v#20ivpcell#20gpdk090	L=1e-07	W=4.2e-07
+ AD=6.72e-14	AS=1.176e-13	PD=7.4e-07	PS=1.4e-06	M=2	simW=4.2e-07 fw=4.2e-07
MI3/I390/I0/avD1_3	I3/I390/I0/avC8#5	I3/I390/I0/avC7	gnd!#26
+ gnd!#27	nmos1v#20ivpcell#20gpdk090	L=1e-07	W=4.2e-07
+ AD=6.72e-14	AS=1.176e-13	PD=7.4e-07	PS=1.4e-06	M=2	simW=4.2e-07 fw=4.2e-07
MI282/I27/avD1_6	I282/I27/avC9#5	I282/I27/avC7#5	avC6#10
+ gnd!#27	nmos1v#20ivpcell#20gpdk090	L=1e-07	W=3e-07
+ AD=8.40001e-14	AS=4.80001e-14	PD=1.16e-06	PS=6.2e-07	M=2	simW=3e-07 fw=3e-07
MI1/I294/avD1_1	I1/avC7#86	CLK#470	gnd!#247	gnd!#27
+ nmos1v#20ivpcell#20gpdk090	L=1e-07	W=4e-07
+ AD=6.4e-14	AS=7.36e-14	PD=7.2e-07	PS=8.48e-07	M=10	simW=4e-07 fw=4e-07
MI1/I200/I0/avD1_3	I1/I200/I0/avC8#5	I1/I200/I0/avC7
+ gnd!#126	gnd!#27	nmos1v#20ivpcell#20gpdk090	L=1e-07
+ W=4.2e-07
+ AD=6.72e-14	AS=1.176e-13	PD=7.4e-07	PS=1.4e-06	M=2
+ simW=4.2e-07 fw=4.2e-07
MI3/I392/I0/avD1_3	I3/I392/I0/avC8#5	I3/I392/I0/avC7	gnd!#26
+ gnd!#27	nmos1v#20ivpcell#20gpdk090	L=1e-07	W=4.2e-07
+ AD=6.72e-14	AS=1.176e-13	PD=7.4e-07	PS=1.4e-06	M=2	simW=4.2e-07 fw=4.2e-07
MI2/I337/I0/avD1_5	I2/I337/avC10#12	CLK#554	I2/I337/I0/avC8
+ gnd!#27	nmos1v#20ivpcell#20gpdk090	L=1e-07	W=4.2e-07
+ AD=6.72e-14	AS=1.176e-13	PD=7.4e-07	PS=1.4e-06	M=2	simW=4.2e-07 fw=4.2e-07
MI315/avD1_5	avC9#12	CLK#8	I315/avC8	gnd!#27
+ nmos1v#20ivpcell#20gpdk090	L=1e-07	W=4.2e-07
+ AD=6.72e-14	AS=1.176e-13	PD=7.4e-07	PS=1.4e-06	M=2	simW=4.2e-07 fw=4.2e-07
MI2/I17/avD1_1	I2/avC8#70	CLK#402	gnd!#26	gnd!#27
+ nmos1v#20ivpcell#20gpdk090	L=1e-07	W=5.45e-07
+ AD=9.31455e-14	AS=9.31455e-14	PD=9.36363e-07	PS=9.36363e-07	M=11	simW=5.45e-07 fw=5.45e-07
MI2/I341/I0/avD1_5	I2/I341/avC10#12	CLK#67	I2/I341/I0/avC8
+ gnd!#27	nmos1v#20ivpcell#20gpdk090	L=1e-07	W=4.2e-07
+ AD=6.72e-14	AS=1.176e-13	PD=7.4e-07	PS=1.4e-06	M=2	simW=4.2e-07 fw=4.2e-07
MI2/I330/I0/avD1_3	I2/I330/I0/avC8#5	I2/I330/I0/avC7	gnd!#26
+ gnd!#27	nmos1v#20ivpcell#20gpdk090	L=1e-07	W=4.2e-07
+ AD=6.72e-14	AS=1.176e-13	PD=7.4e-07	PS=1.4e-06	M=2	simW=4.2e-07 fw=4.2e-07
MI1/I200/I0/avD1_5	I1/I200/avC10#12	CLK#618	I1/I200/I0/avC8
+ gnd!#27	nmos1v#20ivpcell#20gpdk090	L=1e-07	W=4.2e-07
+ AD=6.72e-14	AS=1.176e-13	PD=7.4e-07	PS=1.4e-06	M=2	simW=4.2e-07 fw=4.2e-07
MI1/I199/I0/avD1_3	I1/I199/I0/avC8#5	I1/I199/I0/avC7
+ gnd!#121	gnd!#27	nmos1v#20ivpcell#20gpdk090	L=1e-07
+ W=4.2e-07
+ AD=6.72e-14	AS=1.176e-13	PD=7.4e-07	PS=1.4e-06	M=2
+ simW=4.2e-07 fw=4.2e-07
MI3/I391/I0/avD1_5	I3/I391/avC10#12	CLK#663	I3/I391/I0/avC8
+ gnd!#27	nmos1v#20ivpcell#20gpdk090	L=1e-07	W=4.2e-07
+ AD=6.72e-14	AS=1.176e-13	PD=7.4e-07	PS=1.4e-06	M=2	simW=4.2e-07 fw=4.2e-07
MI3/I391/I0/avD1_3	I3/I391/I0/avC8#5	I3/I391/I0/avC7	gnd!#26
+ gnd!#27	nmos1v#20ivpcell#20gpdk090	L=1e-07	W=4.2e-07
+ AD=6.72e-14	AS=1.176e-13	PD=7.4e-07	PS=1.4e-06	M=2	simW=4.2e-07 fw=4.2e-07
MI0/I13/I0/avD1_3	I0/I13/I0/avC8#5	I0/I13/I0/avC7	gnd!#126
+ gnd!#27	nmos1v#20ivpcell#20gpdk090	L=1e-07	W=4.2e-07
+ AD=6.72e-14	AS=1.176e-13	PD=7.4e-07	PS=1.4e-06	M=2	simW=4.2e-07 fw=4.2e-07
MI0/I14/I0/avD1_3	I0/I14/I0/avC8#5	I0/I14/I0/avC7	gnd!#151
+ gnd!#27	nmos1v#20ivpcell#20gpdk090	L=1e-07	W=4.2e-07
+ AD=6.72e-14	AS=1.176e-13	PD=7.4e-07	PS=1.4e-06	M=2	simW=4.2e-07 fw=4.2e-07
MI2/I13/avD1_1	I2/avC9#63	Set#199	gnd!#26	gnd!#27
+ nmos1v#20ivpcell#20gpdk090	L=1e-07	W=2.4e-07
+ AD=3.84e-14	AS=6.72e-14	PD=5.6e-07	PS=1.04e-06	M=2	simW=2.4e-07 fw=2.4e-07
MI2/I336/I0/avD1_3	I2/I336/I0/avC8#5	I2/I336/I0/avC7	gnd!#26
+ gnd!#27	nmos1v#20ivpcell#20gpdk090	L=1e-07	W=4.2e-07
+ AD=6.72e-14	AS=1.176e-13	PD=7.4e-07	PS=1.4e-06	M=2	simW=4.2e-07 fw=4.2e-07
MI0/I294/avD1_1	I0/avC6#73	CLK#549	gnd!#126	gnd!#27
+ nmos1v#20ivpcell#20gpdk090	L=1e-07	W=4e-07
+ AD=6.4e-14	AS=7.36e-14	PD=7.2e-07	PS=8.48e-07	M=10	simW=4e-07 fw=4e-07
MI1/I201/I0/avD1_5	I1/I201/avC10#12	CLK#224	I1/I201/I0/avC8
+ gnd!#27	nmos1v#20ivpcell#20gpdk090	L=1e-07	W=4.2e-07
+ AD=6.72e-14	AS=1.176e-13	PD=7.4e-07	PS=1.4e-06	M=2	simW=4.2e-07 fw=4.2e-07
MI2/I335/I0/avD1_5	I2/I335/avC10#6	CLK#557	I2/I335/I0/avC8
+ gnd!#27	nmos1v#20ivpcell#20gpdk090	L=1e-07	W=4.2e-07
+ AD=6.72e-14	AS=1.176e-13	PD=7.4e-07	PS=1.4e-06	M=2	simW=4.2e-07 fw=4.2e-07
MI1/I196/I0/avD1_3	I1/I196/I0/avC8#5	I1/I196/I0/avC7
+ gnd!#352	gnd!#27	nmos1v#20ivpcell#20gpdk090	L=1e-07
+ W=4.2e-07
+ AD=6.72e-14	AS=1.176e-13	PD=7.4e-07	PS=1.4e-06	M=2
+ simW=4.2e-07 fw=4.2e-07
MI3/I399/I0/avD1_5	I3/I399/avC10#12	CLK#139	I3/I399/I0/avC8
+ gnd!#27	nmos1v#20ivpcell#20gpdk090	L=1e-07	W=4.2e-07
+ AD=6.72e-14	AS=1.176e-13	PD=7.4e-07	PS=1.4e-06	M=2	simW=4.2e-07 fw=4.2e-07
MI3/I395/I0/avD1_3	I3/I395/I0/avC8#5	I3/I395/I0/avC7	gnd!#32
+ gnd!#27	nmos1v#20ivpcell#20gpdk090	L=1e-07	W=4.2e-07
+ AD=6.72e-14	AS=1.176e-13	PD=7.4e-07	PS=1.4e-06	M=2	simW=4.2e-07 fw=4.2e-07
MI2/I340/I0/avD1_3	I2/I340/I0/avC8#5	I2/I340/I0/avC7
+ gnd!#418	gnd!#27	nmos1v#20ivpcell#20gpdk090	L=1e-07
+ W=4.2e-07
+ AD=6.72e-14	AS=1.176e-13	PD=7.4e-07	PS=1.4e-06	M=2
+ simW=4.2e-07 fw=4.2e-07
MI3/I394/I0/avD1_5	I3/I394/avC10#12	CLK#236	I3/I394/I0/avC8
+ gnd!#27	nmos1v#20ivpcell#20gpdk090	L=1e-07	W=4.2e-07
+ AD=6.72e-14	AS=1.176e-13	PD=7.4e-07	PS=1.4e-06	M=2	simW=4.2e-07 fw=4.2e-07
MI3/I395/I0/avD1_5	I3/I395/avC10#6	CLK#168	I3/I395/I0/avC8
+ gnd!#27	nmos1v#20ivpcell#20gpdk090	L=1e-07	W=4.2e-07
+ AD=6.72e-14	AS=1.176e-13	PD=7.4e-07	PS=1.4e-06	M=2	simW=4.2e-07 fw=4.2e-07
MI3/I393/I0/avD1_3	I3/I393/I0/avC8#5	I3/I393/I0/avC7	gnd!#26
+ gnd!#27	nmos1v#20ivpcell#20gpdk090	L=1e-07	W=4.2e-07
+ AD=6.72e-14	AS=1.176e-13	PD=7.4e-07	PS=1.4e-06	M=2	simW=4.2e-07 fw=4.2e-07
MI2/I336/I0/avD1_5	I2/I336/avC10#6	CLK#715	I2/I336/I0/avC8
+ gnd!#27	nmos1v#20ivpcell#20gpdk090	L=1e-07	W=4.2e-07
+ AD=6.72e-14	AS=1.176e-13	PD=7.4e-07	PS=1.4e-06	M=2	simW=4.2e-07 fw=4.2e-07
MI282/I27/avD1_1	I282/I27/avC8	avC8#6	avC6#22	gnd!#27
+ nmos1v#20ivpcell#20gpdk090	L=1e-07	W=3e-07
+ AD=8.40001e-14	AS=4.80001e-14	PD=1.16e-06	PS=6.2e-07	M=2	simW=3e-07 fw=3e-07
MI3/I393/I0/avD1_5	I3/I393/avC10#12	CLK#380	I3/I393/I0/avC8
+ gnd!#27	nmos1v#20ivpcell#20gpdk090	L=1e-07	W=4.2e-07
+ AD=6.72e-14	AS=1.176e-13	PD=7.4e-07	PS=1.4e-06	M=2	simW=4.2e-07 fw=4.2e-07
MI3/I390/I0/avD1_5	I3/I390/avC10#12	CLK#748	I3/I390/I0/avC8
+ gnd!#27	nmos1v#20ivpcell#20gpdk090	L=1e-07	W=4.2e-07
+ AD=6.72e-14	AS=1.176e-13	PD=7.4e-07	PS=1.4e-06	M=2	simW=4.2e-07 fw=4.2e-07
MI0/I16/I0/avD1_5	I0/I16/avC10#12	CLK#386	I0/I16/I0/avC8
+ gnd!#27	nmos1v#20ivpcell#20gpdk090	L=1e-07	W=4.2e-07
+ AD=6.72e-14	AS=1.176e-13	PD=7.4e-07	PS=1.4e-06	M=2	simW=4.2e-07 fw=4.2e-07
MI1/I202/I0/avD1_5	I1/I202/avC10#12	CLK#127	I1/I202/I0/avC8
+ gnd!#27	nmos1v#20ivpcell#20gpdk090	L=1e-07	W=4.2e-07
+ AD=6.72e-14	AS=1.176e-13	PD=7.4e-07	PS=1.4e-06	M=2	simW=4.2e-07 fw=4.2e-07
MI3/I397/I0/avD1_3	I3/I397/I0/avC8#5	I3/I397/I0/avC7	gnd!#32
+ gnd!#27	nmos1v#20ivpcell#20gpdk090	L=1e-07	W=4.2e-07
+ AD=6.72e-14	AS=1.176e-13	PD=7.4e-07	PS=1.4e-06	M=2	simW=4.2e-07 fw=4.2e-07
MI2/I340/I0/avD1_5	I2/I340/avC10#12	CLK#160	I2/I340/I0/avC8
+ gnd!#27	nmos1v#20ivpcell#20gpdk090	L=1e-07	W=4.2e-07
+ AD=6.72e-14	AS=1.176e-13	PD=7.4e-07	PS=1.4e-06	M=2	simW=4.2e-07 fw=4.2e-07
MI2/I335/I0/avD1_3	I2/I335/I0/avC8#5	I2/I335/I0/avC7	gnd!#26
+ gnd!#27	nmos1v#20ivpcell#20gpdk090	L=1e-07	W=4.2e-07
+ AD=6.72e-14	AS=1.176e-13	PD=7.4e-07	PS=1.4e-06	M=2	simW=4.2e-07 fw=4.2e-07
MI3/I389/I0/avD1_3	I3/I389/I0/avC8#5	I3/I389/I0/avC7	gnd!#32
+ gnd!#27	nmos1v#20ivpcell#20gpdk090	L=1e-07	W=4.2e-07
+ AD=6.72e-14	AS=1.176e-13	PD=7.4e-07	PS=1.4e-06	M=2	simW=4.2e-07 fw=4.2e-07
MI1/I196/I0/avD1_5	I1/I196/avC10#6	CLK#192	I1/I196/I0/avC8
+ gnd!#27	nmos1v#20ivpcell#20gpdk090	L=1e-07	W=4.2e-07
+ AD=6.72e-14	AS=1.176e-13	PD=7.4e-07	PS=1.4e-06	M=2	simW=4.2e-07 fw=4.2e-07
MI2/I339/I0/avD1_5	I2/I339/avC10#13	CLK#257	I2/I339/I0/avC8
+ gnd!#27	nmos1v#20ivpcell#20gpdk090	L=1e-07	W=4.2e-07
+ AD=6.72e-14	AS=1.176e-13	PD=7.4e-07	PS=1.4e-06	M=2	simW=4.2e-07 fw=4.2e-07
MI0/I13/I0/avD1_5	I0/I13/avC10#6	CLK#699	I0/I13/I0/avC8	gnd!#27
+ nmos1v#20ivpcell#20gpdk090	L=1e-07	W=4.2e-07
+ AD=6.72e-14	AS=1.176e-13	PD=7.4e-07	PS=1.4e-06	M=2	simW=4.2e-07 fw=4.2e-07
MI2/I341/I0/avD1_3	I2/I341/I0/avC8#5	I2/I341/I0/avC7
+ gnd!#484	gnd!#27	nmos1v#20ivpcell#20gpdk090	L=1e-07
+ W=4.2e-07
+ AD=6.72e-14	AS=1.176e-13	PD=7.4e-07	PS=1.4e-06	M=2
+ simW=4.2e-07 fw=4.2e-07
MI0/I15/I0/avD1_5	I0/I15/avC10#12	CLK#546	I0/I15/I0/avC8
+ gnd!#27	nmos1v#20ivpcell#20gpdk090	L=1e-07	W=4.2e-07
+ AD=6.72e-14	AS=1.176e-13	PD=7.4e-07	PS=1.4e-06	M=2	simW=4.2e-07 fw=4.2e-07
MI2/I338/I0/avD1_5	I2/I338/avC10#12	CLK#436	I2/I338/I0/avC8
+ gnd!#27	nmos1v#20ivpcell#20gpdk090	L=1e-07	W=4.2e-07
+ AD=6.72e-14	AS=1.176e-13	PD=7.4e-07	PS=1.4e-06	M=2	simW=4.2e-07 fw=4.2e-07
MI1/I202/I0/avD1_3	I1/I202/I0/avC8#5	I1/I202/I0/avC7
+ gnd!#126	gnd!#27	nmos1v#20ivpcell#20gpdk090	L=1e-07
+ W=4.2e-07
+ AD=6.72e-14	AS=1.176e-13	PD=7.4e-07	PS=1.4e-06	M=2
+ simW=4.2e-07 fw=4.2e-07
MI1/I2/avD1_1	I1/avC6#49	Set#242	gnd!#247	gnd!#27
+ nmos1v#20ivpcell#20gpdk090	L=1e-07	W=2.4e-07
+ AD=3.84e-14	AS=6.72e-14	PD=5.6e-07	PS=1.04e-06	M=2	simW=2.4e-07 fw=2.4e-07
MI2/I331/I0/avD1_5	I2/I331/avC10#6	CLK#244	I2/I331/I0/avC8
+ gnd!#27	nmos1v#20ivpcell#20gpdk090	L=1e-07	W=4.2e-07
+ AD=6.72e-14	AS=1.176e-13	PD=7.4e-07	PS=1.4e-06	M=2	simW=4.2e-07 fw=4.2e-07
MI2/I338/I0/avD1_3	I2/I338/I0/avC8#5	I2/I338/I0/avC7
+ gnd!#249	gnd!#27	nmos1v#20ivpcell#20gpdk090	L=1e-07
+ W=4.2e-07
+ AD=6.72e-14	AS=1.176e-13	PD=7.4e-07	PS=1.4e-06	M=2
+ simW=4.2e-07 fw=4.2e-07
MI2/I337/I0/avD1_3	I2/I337/I0/avC8#5	I2/I337/I0/avC7
+ gnd!#185	gnd!#27	nmos1v#20ivpcell#20gpdk090	L=1e-07
+ W=4.2e-07
+ AD=6.72e-14	AS=1.176e-13	PD=7.4e-07	PS=1.4e-06	M=2
+ simW=4.2e-07 fw=4.2e-07
MI2/I331/I0/avD1_3	I2/I331/I0/avC8#5	I2/I331/I0/avC7	gnd!#26
+ gnd!#27	nmos1v#20ivpcell#20gpdk090	L=1e-07	W=4.2e-07
+ AD=6.72e-14	AS=1.176e-13	PD=7.4e-07	PS=1.4e-06	M=2	simW=4.2e-07 fw=4.2e-07
MI317/avD1_1	avC7#19	CLK#19	gnd!#608	gnd!#27
+ nmos1v#20ivpcell#20gpdk090	L=1e-07	W=4e-07
+ AD=6.4e-14	AS=7.36e-14	PD=7.2e-07	PS=8.48e-07	M=10	simW=4e-07 fw=4e-07
MI0/I14/I0/avD1_5	I0/I14/avC10#12	CLK#666	I0/I14/I0/avC8
+ gnd!#27	nmos1v#20ivpcell#20gpdk090	L=1e-07	W=4.2e-07
+ AD=6.72e-14	AS=1.176e-13	PD=7.4e-07	PS=1.4e-06	M=2	simW=4.2e-07 fw=4.2e-07
MI1/I201/I0/avD1_3	I1/I201/I0/avC8#5	I1/I201/I0/avC7
+ gnd!#126	gnd!#27	nmos1v#20ivpcell#20gpdk090	L=1e-07
+ W=4.2e-07
+ AD=6.72e-14	AS=1.176e-13	PD=7.4e-07	PS=1.4e-06	M=2
+ simW=4.2e-07 fw=4.2e-07
MI0/I15/I0/avD1_3	I0/I15/I0/avC8#5	I0/I15/I0/avC7	gnd!#151
+ gnd!#27	nmos1v#20ivpcell#20gpdk090	L=1e-07	W=4.2e-07
+ AD=6.72e-14	AS=1.176e-13	PD=7.4e-07	PS=1.4e-06	M=2	simW=4.2e-07 fw=4.2e-07
MI0/I6/I0/avD1_5	I0/I6/avC10#6	CLK#376	I0/I6/I0/avC8	gnd!#27
+ nmos1v#20ivpcell#20gpdk090	L=1e-07	W=4.2e-07
+ AD=6.72e-14	AS=1.176e-13	PD=7.4e-07	PS=1.4e-06	M=2	simW=4.2e-07 fw=4.2e-07
MI0/I18/I0/avD1_5	I0/I18/avC10#12	CLK#241	I0/I18/I0/avC8
+ gnd!#27	nmos1v#20ivpcell#20gpdk090	L=1e-07	W=4.2e-07
+ AD=6.72e-14	AS=1.176e-13	PD=7.4e-07	PS=1.4e-06	M=2	simW=4.2e-07 fw=4.2e-07
MI3/I400/I0/avD1_5	I3/I400/avC10#12	CLK#55	I3/I400/I0/avC8
+ gnd!#27	nmos1v#20ivpcell#20gpdk090	L=1e-07	W=4.2e-07
+ AD=6.72e-14	AS=1.176e-13	PD=7.4e-07	PS=1.4e-06	M=2	simW=4.2e-07 fw=4.2e-07
MI3/I397/I0/avD1_5	I3/I397/avC10#6	CLK#465	I3/I397/I0/avC8
+ gnd!#27	nmos1v#20ivpcell#20gpdk090	L=1e-07	W=4.2e-07
+ AD=6.72e-14	AS=1.176e-13	PD=7.4e-07	PS=1.4e-06	M=2	simW=4.2e-07 fw=4.2e-07
MI3/I399/I0/avD1_3	I3/I399/I0/avC8#5	I3/I399/I0/avC7	gnd!#26
+ gnd!#27	nmos1v#20ivpcell#20gpdk090	L=1e-07	W=4.2e-07
+ AD=6.72e-14	AS=1.176e-13	PD=7.4e-07	PS=1.4e-06	M=2	simW=4.2e-07 fw=4.2e-07
MI3/I389/I0/avD1_5	I3/I389/avC10#6	CLK#756	I3/I389/I0/avC8
+ gnd!#27	nmos1v#20ivpcell#20gpdk090	L=1e-07	W=4.2e-07
+ AD=6.72e-14	AS=1.176e-13	PD=7.4e-07	PS=1.4e-06	M=2	simW=4.2e-07 fw=4.2e-07
MI0/I6/I0/avD1_3	I0/I6/I0/avC8#5	I0/I6/I0/avC7	gnd!#126
+ gnd!#27	nmos1v#20ivpcell#20gpdk090	L=1e-07	W=4.2e-07
+ AD=6.72e-14	AS=1.176e-13	PD=7.4e-07	PS=1.4e-06	M=2	simW=4.2e-07 fw=4.2e-07
MI0/I16/I0/avD1_3	I0/I16/I0/avC8#5	I0/I16/I0/avC7	gnd!#151
+ gnd!#27	nmos1v#20ivpcell#20gpdk090	L=1e-07	W=4.2e-07
+ AD=6.72e-14	AS=1.176e-13	PD=7.4e-07	PS=1.4e-06	M=2	simW=4.2e-07 fw=4.2e-07
MI3/I17/avD1_1	I3/avC7#50	CLK#292	gnd!#32	gnd!#27
+ nmos1v#20ivpcell#20gpdk090	L=1e-07	W=5.45e-07
+ AD=9.31455e-14	AS=9.31455e-14	PD=9.36363e-07	PS=9.36363e-07	M=11	simW=5.45e-07 fw=5.45e-07
MI3/I392/I0/avD1_5	I3/I392/avC10#12	CLK#543	I3/I392/I0/avC8
+ gnd!#27	nmos1v#20ivpcell#20gpdk090	L=1e-07	W=4.2e-07
+ AD=6.72e-14	AS=1.176e-13	PD=7.4e-07	PS=1.4e-06	M=2	simW=4.2e-07 fw=4.2e-07
MI0/I17/I0/avD1_3	I0/I17/I0/avC8#5	I0/I17/I0/avC7	gnd!#126
+ gnd!#27	nmos1v#20ivpcell#20gpdk090	L=1e-07	W=4.2e-07
+ AD=6.72e-14	AS=1.176e-13	PD=7.4e-07	PS=1.4e-06	M=2	simW=4.2e-07 fw=4.2e-07
MI1/I203/I0/avD1_3	I1/I203/I0/avC8#5	I1/I203/I0/avC7
+ gnd!#513	gnd!#27	nmos1v#20ivpcell#20gpdk090	L=1e-07
+ W=4.2e-07
+ AD=6.72e-14	AS=1.176e-13	PD=7.4e-07	PS=1.4e-06	M=2
+ simW=4.2e-07 fw=4.2e-07
MI1/I198/I0/avD1_5	I1/I198/avC10	CLK#534	I1/I198/I0/avC8
+ gnd!#27	nmos1v#20ivpcell#20gpdk090	L=1e-07	W=4.2e-07
+ AD=6.72e-14	AS=1.176e-13	PD=7.4e-07	PS=1.4e-06	M=2	simW=4.2e-07 fw=4.2e-07
MI3/I396/I0/avD1_5	I3/I396/avC10#6	CLK#691	I3/I396/I0/avC8
+ gnd!#27	nmos1v#20ivpcell#20gpdk090	L=1e-07	W=4.2e-07
+ AD=6.72e-14	AS=1.176e-13	PD=7.4e-07	PS=1.4e-06	M=2	simW=4.2e-07 fw=4.2e-07
MI1/I197/I0/avD1_3	I1/I197/I0/avC8#5	I1/I197/I0/avC7
+ gnd!#352	gnd!#27	nmos1v#20ivpcell#20gpdk090	L=1e-07
+ W=4.2e-07
+ AD=6.72e-14	AS=1.176e-13	PD=7.4e-07	PS=1.4e-06	M=2
+ simW=4.2e-07 fw=4.2e-07
MI3/I394/I0/avD1_3	I3/I394/I0/avC8#5	I3/I394/I0/avC7	gnd!#26
+ gnd!#27	nmos1v#20ivpcell#20gpdk090	L=1e-07	W=4.2e-07
+ AD=6.72e-14	AS=1.176e-13	PD=7.4e-07	PS=1.4e-06	M=2	simW=4.2e-07 fw=4.2e-07
MI2/I339/I0/avD1_3	I2/I339/I0/avC8#5	I2/I339/I0/avC7
+ gnd!#351	gnd!#27	nmos1v#20ivpcell#20gpdk090	L=1e-07
+ W=4.2e-07
+ AD=6.72e-14	AS=1.176e-13	PD=7.4e-07	PS=1.4e-06	M=2
+ simW=4.2e-07 fw=4.2e-07
MI1/I198/I0/avD1_3	I1/I198/I0/avC8#5	I1/I198/I0/avC7
+ gnd!#126	gnd!#27	nmos1v#20ivpcell#20gpdk090	L=1e-07
+ W=4.2e-07
+ AD=6.72e-14	AS=1.176e-13	PD=7.4e-07	PS=1.4e-06	M=2
+ simW=4.2e-07 fw=4.2e-07
MI3/I13/avD1_1	I3/avC8#44	Set#145	gnd!#32	gnd!#27
+ nmos1v#20ivpcell#20gpdk090	L=1e-07	W=2.4e-07
+ AD=3.84e-14	AS=6.72e-14	PD=5.6e-07	PS=1.04e-06	M=2	simW=2.4e-07 fw=2.4e-07
MI3/I400/I0/avD1_3	I3/I400/I0/avC8#5	I3/I400/I0/avC7	gnd!#26
+ gnd!#27	nmos1v#20ivpcell#20gpdk090	L=1e-07	W=4.2e-07
+ AD=6.72e-14	AS=1.176e-13	PD=7.4e-07	PS=1.4e-06	M=2	simW=4.2e-07 fw=4.2e-07
MI0/I19/avD1_1	I0/avC9#36	Set#189	gnd!#126	gnd!#27
+ nmos1v#20ivpcell#20gpdk090	L=1e-07	W=2.4e-07
+ AD=3.84e-14	AS=6.72e-14	PD=5.6e-07	PS=1.04e-06	M=2	simW=2.4e-07 fw=2.4e-07
MI2/I334/avD7_1	I2/I334/avC7#12	avC8#48	vdd!#297
+ vdd!#313	pmos1v#20ivpcell#20gpdk090	L=1e-07	W=2.4e-07
+ AD=6.72e-14	AS=6.72e-14	PD=1.04e-06	PS=1.04e-06	simW=2.4e-07 fw=2.4e-07
MI2/I334/avD7_2	I2/I334/avC6#4	I2/avC18#4	vdd!#307	vdd!#313
+ pmos1v#20ivpcell#20gpdk090	L=1e-07	W=9e-07
+ AD=1.44e-13	AS=2.52e-13	PD=1.22e-06	PS=2.36e-06	simW=9e-07 fw=9e-07
MI2/I334/avD7_3	I2/avC17#14	I2/I334/avC7#18	I2/I334/avC6#4
+ vdd!#313	pmos1v#20ivpcell#20gpdk090	L=1e-07	W=9e-07
+ AD=2.52e-13	AS=1.44e-13	PD=2.36e-06	PS=1.22e-06	simW=9e-07 fw=9e-07
MI2/I334/avD7_4	I2/avC17#8	I2/I334/avC6#2	I2/I334/avC7#3	vdd!#313
+ pmos1v#20ivpcell#20gpdk090	L=1e-07	W=2.4e-07
+ AD=6.72e-14	AS=6.72e-14	PD=1.04e-06	PS=1.04e-06	simW=2.4e-07 fw=2.4e-07
MI2/I10/avD7_1	avC8#40	I2/avC7	vdd!#440	vdd!#313
+ pmos1v#20ivpcell#20gpdk090	L=1e-07	W=6e-07
+ AD=1.68e-13	AS=1.68e-13	PD=1.76e-06	PS=1.76e-06	simW=6e-07 fw=6e-07
MI2/I4/avD7_1	I2/avC7#7	I2/avC6#10	vdd!#446	vdd!#313
+ pmos1v#20ivpcell#20gpdk090	L=1e-07	W=2.4e-07
+ AD=6.72e-14	AS=6.72e-14	PD=1.04e-06	PS=1.04e-06	simW=2.4e-07 fw=2.4e-07
MI2/I337/I1/avD7_1	I2/avC15#11	I2/avC9#76	I2/I337/avC10#9
+ vdd!#313	pmos1v#20ivpcell#20gpdk090	L=1e-07	W=6e-07
+ AD=9.6e-14	AS=1.68e-13	PD=9.2e-07	PS=1.76e-06	simW=6e-07 fw=6e-07
MI2/I337/I1/avD7_2	vdd!#338	Set#241	I2/avC15#11
+ vdd!#313	pmos1v#20ivpcell#20gpdk090	L=1e-07	W=6e-07
+ AD=1.68e-13	AS=9.6e-14	PD=1.76e-06	PS=9.2e-07	simW=6e-07 fw=6e-07
MI2/I337/I0/avD7_1	I2/I337/I0/avC11	I2/avC17#3	vdd!#319
+ vdd!#313	pmos1v#20ivpcell#20gpdk090	L=1e-07	W=4.8e-07
+ AD=2.88e-14	AS=1.344e-13	PD=6e-07	PS=1.52e-06	simW=4.8e-07 fw=4.8e-07
MI2/I337/I0/avD7_2	I2/I337/I0/avC7#6	CLK#641
+ I2/I337/I0/avC11	vdd!#313	pmos1v#20ivpcell#20gpdk090	L=1e-07
+ W=4.8e-07
+ AD=1.344e-13	AS=2.88e-14	PD=1.52e-06	PS=6e-07
+ simW=4.8e-07 fw=4.8e-07
MI2/I338/I1/avD7_1	I2/avC14#11	I2/avC9#54	I2/I338/avC10#9
+ vdd!#313	pmos1v#20ivpcell#20gpdk090	L=1e-07	W=6e-07
+ AD=9.6e-14	AS=1.68e-13	PD=9.2e-07	PS=1.76e-06	simW=6e-07 fw=6e-07
MI2/I338/I1/avD7_2	vdd!#370	Set#173	I2/avC14#11
+ vdd!#313	pmos1v#20ivpcell#20gpdk090	L=1e-07	W=6e-07
+ AD=1.68e-13	AS=9.6e-14	PD=1.76e-06	PS=9.2e-07	simW=6e-07 fw=6e-07
MI2/I338/I0/avD7_1	I2/I338/I0/avC11	I2/avC15#3	vdd!#345
+ vdd!#313	pmos1v#20ivpcell#20gpdk090	L=1e-07	W=4.8e-07
+ AD=2.88e-14	AS=1.344e-13	PD=6e-07	PS=1.52e-06	simW=4.8e-07 fw=4.8e-07
MI2/I338/I0/avD7_2	I2/I338/I0/avC7#6	CLK#520
+ I2/I338/I0/avC11	vdd!#313	pmos1v#20ivpcell#20gpdk090	L=1e-07
+ W=4.8e-07
+ AD=1.344e-13	AS=2.88e-14	PD=1.52e-06	PS=6e-07
+ simW=4.8e-07 fw=4.8e-07
MI2/I339/I1/avD7_1	I2/avC12#11	I2/avC9#35	I2/I339/avC10#9
+ vdd!#313	pmos1v#20ivpcell#20gpdk090	L=1e-07	W=6e-07
+ AD=9.6e-14	AS=1.68e-13	PD=9.2e-07	PS=1.76e-06	simW=6e-07 fw=6e-07
MI2/I339/I1/avD7_2	vdd!#398	Set#120	I2/avC12#11
+ vdd!#313	pmos1v#20ivpcell#20gpdk090	L=1e-07	W=6e-07
+ AD=1.68e-13	AS=9.6e-14	PD=1.76e-06	PS=9.2e-07	simW=6e-07 fw=6e-07
MI2/I339/I0/avD7_1	I2/I339/I0/avC11	I2/avC14#3	vdd!#379
+ vdd!#313	pmos1v#20ivpcell#20gpdk090	L=1e-07	W=4.8e-07
+ AD=2.88e-14	AS=1.344e-13	PD=6e-07	PS=1.52e-06	simW=4.8e-07 fw=4.8e-07
MI2/I339/I0/avD7_2	I2/I339/I0/avC7#6	CLK#346
+ I2/I339/I0/avC11	vdd!#313	pmos1v#20ivpcell#20gpdk090	L=1e-07
+ W=4.8e-07
+ AD=1.344e-13	AS=2.88e-14	PD=1.52e-06	PS=6e-07
+ simW=4.8e-07 fw=4.8e-07
MI2/I340/I1/avD7_1	I2/avC10#11	I2/avC9#16	I2/I340/avC10#9
+ vdd!#313	pmos1v#20ivpcell#20gpdk090	L=1e-07	W=6e-07
+ AD=9.6e-14	AS=1.68e-13	PD=9.2e-07	PS=1.76e-06	simW=6e-07 fw=6e-07
MI2/I340/I1/avD7_2	vdd!#424	Set#51	I2/avC10#11	vdd!#313
+ pmos1v#20ivpcell#20gpdk090	L=1e-07	W=6e-07
+ AD=1.68e-13	AS=9.6e-14	PD=1.76e-06	PS=9.2e-07	simW=6e-07 fw=6e-07
MI2/I340/I0/avD7_1	I2/I340/I0/avC11	I2/avC12#3	vdd!#404
+ vdd!#313	pmos1v#20ivpcell#20gpdk090	L=1e-07	W=4.8e-07
+ AD=2.88e-14	AS=1.344e-13	PD=6e-07	PS=1.52e-06	simW=4.8e-07 fw=4.8e-07
MI2/I340/I0/avD7_2	I2/I340/I0/avC7#6	CLK#217
+ I2/I340/I0/avC11	vdd!#313	pmos1v#20ivpcell#20gpdk090	L=1e-07
+ W=4.8e-07
+ AD=1.344e-13	AS=2.88e-14	PD=1.52e-06	PS=6e-07
+ simW=4.8e-07 fw=4.8e-07
MI2/I341/I1/avD7_1	I2/avC6#5	I2/avC9#5	I2/I341/avC10#9
+ vdd!#313	pmos1v#20ivpcell#20gpdk090	L=1e-07	W=6e-07
+ AD=9.6e-14	AS=1.68e-13	PD=9.2e-07	PS=1.76e-06	simW=6e-07 fw=6e-07
MI2/I341/I1/avD7_2	vdd!#455	Set#25	I2/avC6#5	vdd!#313
+ pmos1v#20ivpcell#20gpdk090	L=1e-07	W=6e-07
+ AD=1.68e-13	AS=9.6e-14	PD=1.76e-06	PS=9.2e-07	simW=6e-07 fw=6e-07
MI2/I341/I0/avD7_1	I2/I341/I0/avC11	I2/avC10#3	vdd!#430
+ vdd!#313	pmos1v#20ivpcell#20gpdk090	L=1e-07	W=4.8e-07
+ AD=2.88e-14	AS=1.344e-13	PD=6e-07	PS=1.52e-06	simW=4.8e-07 fw=4.8e-07
MI2/I341/I0/avD7_2	I2/I341/I0/avC7#6	CLK#97	I2/I341/I0/avC11
+ vdd!#313	pmos1v#20ivpcell#20gpdk090	L=1e-07	W=4.8e-07
+ AD=1.344e-13	AS=2.88e-14	PD=1.52e-06	PS=6e-07	simW=4.8e-07 fw=4.8e-07
MI2/I336/I1/avD7_1	I2/avC18#6	I2/avC9#93	I2/I336/avC10#11
+ vdd!#313	pmos1v#20ivpcell#20gpdk090	L=1e-07	W=6e-07
+ AD=9.6e-14	AS=1.68e-13	PD=9.2e-07	PS=1.76e-06	simW=6e-07 fw=6e-07
MI2/I336/I1/avD7_2	vdd!#302	Set#317	I2/avC18#6
+ vdd!#313	pmos1v#20ivpcell#20gpdk090	L=1e-07	W=6e-07
+ AD=1.68e-13	AS=9.6e-14	PD=1.76e-06	PS=9.2e-07	simW=6e-07 fw=6e-07
MI2/I336/I0/avD7_1	I2/I336/I0/avC11	I2/avC16	vdd!#315
+ vdd!#313	pmos1v#20ivpcell#20gpdk090	L=1e-07	W=4.8e-07
+ AD=2.88e-14	AS=1.344e-13	PD=6e-07	PS=1.52e-06	simW=4.8e-07 fw=4.8e-07
MI2/I336/I0/avD7_2	I2/I336/I0/avC7#4	CLK#653
+ I2/I336/I0/avC11	vdd!#313	pmos1v#20ivpcell#20gpdk090	L=1e-07
+ W=4.8e-07
+ AD=1.344e-13	AS=2.88e-14	PD=1.52e-06	PS=6e-07
+ simW=4.8e-07 fw=4.8e-07
MI2/I335/I1/avD7_1	I2/avC16#5	I2/avC9#82	I2/I335/avC10#11
+ vdd!#313	pmos1v#20ivpcell#20gpdk090	L=1e-07	W=6e-07
+ AD=9.6e-14	AS=1.68e-13	PD=9.2e-07	PS=1.76e-06	simW=6e-07 fw=6e-07
MI2/I335/I1/avD7_2	vdd!#323	Set#275	I2/avC16#5
+ vdd!#313	pmos1v#20ivpcell#20gpdk090	L=1e-07	W=6e-07
+ AD=1.68e-13	AS=9.6e-14	PD=1.76e-06	PS=9.2e-07	simW=6e-07 fw=6e-07
MI2/I335/I0/avD7_1	I2/I335/I0/avC11	I2/avC13#14	vdd!#341
+ vdd!#313	pmos1v#20ivpcell#20gpdk090	L=1e-07	W=4.8e-07
+ AD=2.88e-14	AS=1.344e-13	PD=6e-07	PS=1.52e-06	simW=4.8e-07 fw=4.8e-07
MI2/I335/I0/avD7_2	I2/I335/I0/avC7#4	CLK#523
+ I2/I335/I0/avC11	vdd!#313	pmos1v#20ivpcell#20gpdk090	L=1e-07
+ W=4.8e-07
+ AD=1.344e-13	AS=2.88e-14	PD=1.52e-06	PS=6e-07
+ simW=4.8e-07 fw=4.8e-07
MI2/I331/I1/avD7_1	I2/avC13	I2/avC9#46	I2/I331/avC10#11
+ vdd!#313	pmos1v#20ivpcell#20gpdk090	L=1e-07	W=6e-07
+ AD=9.6e-14	AS=1.68e-13	PD=9.2e-07	PS=1.76e-06	simW=6e-07 fw=6e-07
MI2/I331/I1/avD7_2	vdd!#389	Set#124	I2/avC13
+ vdd!#313	pmos1v#20ivpcell#20gpdk090	L=1e-07	W=6e-07
+ AD=1.68e-13	AS=9.6e-14	PD=1.76e-06	PS=9.2e-07	simW=6e-07 fw=6e-07
MI2/I331/I0/avD7_1	I2/I331/I0/avC11	I2/avC11#11	vdd!#408
+ vdd!#313	pmos1v#20ivpcell#20gpdk090	L=1e-07	W=4.8e-07
+ AD=2.88e-14	AS=1.344e-13	PD=6e-07	PS=1.52e-06	simW=4.8e-07 fw=4.8e-07
MI2/I331/I0/avD7_2	I2/I331/I0/avC7#8	CLK#203
+ I2/I331/I0/avC11	vdd!#313	pmos1v#20ivpcell#20gpdk090	L=1e-07
+ W=4.8e-07
+ AD=1.344e-13	AS=2.88e-14	PD=1.52e-06	PS=6e-07
+ simW=4.8e-07 fw=4.8e-07
MI2/I330/I1/avD7_1	I2/avC11	I2/avC9#22	I2/I330/avC10#11
+ vdd!#313	pmos1v#20ivpcell#20gpdk090	L=1e-07	W=6e-07
+ AD=9.6e-14	AS=1.68e-13	PD=9.2e-07	PS=1.76e-06	simW=6e-07 fw=6e-07
MI2/I330/I1/avD7_2	vdd!#415	Set#55	I2/avC11	vdd!#313
+ pmos1v#20ivpcell#20gpdk090	L=1e-07	W=6e-07
+ AD=1.68e-13	AS=9.6e-14	PD=1.76e-06	PS=9.2e-07	simW=6e-07 fw=6e-07
MI2/I330/I0/avD7_1	I2/I330/I0/avC11	avC8#31	vdd!#434
+ vdd!#313	pmos1v#20ivpcell#20gpdk090	L=1e-07	W=4.8e-07
+ AD=2.88e-14	AS=1.344e-13	PD=6e-07	PS=1.52e-06	simW=4.8e-07 fw=4.8e-07
MI2/I330/I0/avD7_2	I2/I330/I0/avC7#8	CLK#86	I2/I330/I0/avC11
+ vdd!#313	pmos1v#20ivpcell#20gpdk090	L=1e-07	W=4.8e-07
+ AD=1.344e-13	AS=2.88e-14	PD=1.52e-06	PS=6e-07	simW=4.8e-07 fw=4.8e-07
MI1/I206/avD7_1	I1/I206/avC7#12	avC11#58	vdd!#628
+ vdd!#643	pmos1v#20ivpcell#20gpdk090	L=1e-07	W=2.4e-07
+ AD=6.72e-14	AS=6.72e-14	PD=1.04e-06	PS=1.04e-06	simW=2.4e-07 fw=2.4e-07
MI1/I206/avD7_2	I1/I206/avC6#4	I1/avC19#4	vdd!#637	vdd!#643
+ pmos1v#20ivpcell#20gpdk090	L=1e-07	W=9e-07
+ AD=1.44e-13	AS=2.52e-13	PD=1.22e-06	PS=2.36e-06	simW=9e-07 fw=9e-07
MI1/I206/avD7_3	I1/avC18#15	I1/I206/avC7#18	I1/I206/avC6#4
+ vdd!#643	pmos1v#20ivpcell#20gpdk090	L=1e-07	W=9e-07
+ AD=2.52e-13	AS=1.44e-13	PD=2.36e-06	PS=1.22e-06	simW=9e-07 fw=9e-07
MI1/I206/avD7_4	I1/avC18#5	I1/I206/avC6#2	I1/I206/avC7#3	vdd!#643
+ pmos1v#20ivpcell#20gpdk090	L=1e-07	W=2.4e-07
+ AD=6.72e-14	AS=6.72e-14	PD=1.04e-06	PS=1.04e-06	simW=2.4e-07 fw=2.4e-07
MI1/I204/avD7_1	I1/I204/avC7#3	avC11#42	vdd!#713	vdd!#643
+ pmos1v#20ivpcell#20gpdk090	L=1e-07	W=2.4e-07
+ AD=6.72e-14	AS=6.72e-14	PD=1.04e-06	PS=1.04e-06	simW=2.4e-07 fw=2.4e-07
MI1/I204/avD7_2	I1/I204/avC6#5	I1/avC10#16	vdd!#710	vdd!#643
+ pmos1v#20ivpcell#20gpdk090	L=1e-07	W=9e-07
+ AD=1.44e-13	AS=2.52e-13	PD=1.22e-06	PS=2.36e-06	simW=9e-07 fw=9e-07
MI1/I204/avD7_3	I1/avC15#4	I1/I204/avC7#13	I1/I204/avC6#5
+ vdd!#643	pmos1v#20ivpcell#20gpdk090	L=1e-07	W=9e-07
+ AD=2.52e-13	AS=1.44e-13	PD=2.36e-06	PS=1.22e-06	simW=9e-07 fw=9e-07
MI1/I204/avD7_4	I1/avC15#14	I1/I204/avC6#10	I1/I204/avC7#14
+ vdd!#643	pmos1v#20ivpcell#20gpdk090	L=1e-07	W=2.4e-07
+ AD=6.72e-14	AS=6.72e-14	PD=1.04e-06	PS=1.04e-06	simW=2.4e-07 fw=2.4e-07
MI1/I205/avD7_1	I1/I205/avC7#3	avC11#52	vdd!#661	vdd!#643
+ pmos1v#20ivpcell#20gpdk090	L=1e-07	W=2.4e-07
+ AD=6.72e-14	AS=6.72e-14	PD=1.04e-06	PS=1.04e-06	simW=2.4e-07 fw=2.4e-07
MI1/I205/avD7_2	I1/I205/avC6#5	I1/avC16#19	vdd!#652	vdd!#643
+ pmos1v#20ivpcell#20gpdk090	L=1e-07	W=9e-07
+ AD=1.44e-13	AS=2.52e-13	PD=1.22e-06	PS=2.36e-06	simW=9e-07 fw=9e-07
MI1/I205/avD7_3	I1/avC17#6	I1/I205/avC7#13	I1/I205/avC6#5
+ vdd!#643	pmos1v#20ivpcell#20gpdk090	L=1e-07	W=9e-07
+ AD=2.52e-13	AS=1.44e-13	PD=2.36e-06	PS=1.22e-06	simW=9e-07 fw=9e-07
MI1/I205/avD7_4	I1/avC17#17	I1/I205/avC6#9	I1/I205/avC7#14
+ vdd!#643	pmos1v#20ivpcell#20gpdk090	L=1e-07	W=2.4e-07
+ AD=6.72e-14	AS=6.72e-14	PD=1.04e-06	PS=1.04e-06	simW=2.4e-07 fw=2.4e-07
MI1/I7/avD7_1	avC11#12	I1/avC9	vdd!#775	vdd!#643
+ pmos1v#20ivpcell#20gpdk090	L=1e-07	W=6e-07
+ AD=1.68e-13	AS=1.68e-13	PD=1.76e-06	PS=1.76e-06	simW=6e-07 fw=6e-07
MI1/I4/avD7_1	I1/avC9#4	I1/avC11#16	vdd!#778	vdd!#643
+ pmos1v#20ivpcell#20gpdk090	L=1e-07	W=2.4e-07
+ AD=6.72e-14	AS=6.72e-14	PD=1.04e-06	PS=1.04e-06	simW=2.4e-07 fw=2.4e-07
MI1/I200/I1/avD7_1	I1/avC14#13	I1/avC6#64	I1/I200/avC10#9
+ vdd!#643	pmos1v#20ivpcell#20gpdk090	L=1e-07	W=6e-07
+ AD=9.6e-14	AS=1.68e-13	PD=9.2e-07	PS=1.76e-06	simW=6e-07 fw=6e-07
MI1/I200/I1/avD7_2	vdd!#665	Set#261	I1/avC14#13
+ vdd!#643	pmos1v#20ivpcell#20gpdk090	L=1e-07	W=6e-07
+ AD=1.68e-13	AS=9.6e-14	PD=1.76e-06	PS=9.2e-07	simW=6e-07 fw=6e-07
MI1/I200/I0/avD7_1	I1/I200/I0/avC11	I1/avC18#3	vdd!#649
+ vdd!#643	pmos1v#20ivpcell#20gpdk090	L=1e-07	W=4.8e-07
+ AD=2.88e-14	AS=1.344e-13	PD=6e-07	PS=1.52e-06	simW=4.8e-07 fw=4.8e-07
MI1/I200/I0/avD7_2	I1/I200/I0/avC7#6	CLK#669
+ I1/I200/I0/avC11	vdd!#643	pmos1v#20ivpcell#20gpdk090	L=1e-07
+ W=4.8e-07
+ AD=1.344e-13	AS=2.88e-14	PD=1.52e-06	PS=6e-07
+ simW=4.8e-07 fw=4.8e-07
MI1/I198/I1/avD7_1	I1/avC16#8	I1/avC6#54	I1/I198/avC10#11
+ vdd!#643	pmos1v#20ivpcell#20gpdk090	L=1e-07	W=6e-07
+ AD=9.6e-14	AS=1.68e-13	PD=9.2e-07	PS=1.76e-06	simW=6e-07 fw=6e-07
MI1/I198/I1/avD7_2	vdd!#671	Set#250	I1/avC16#8
+ vdd!#643	pmos1v#20ivpcell#20gpdk090	L=1e-07	W=6e-07
+ AD=1.68e-13	AS=9.6e-14	PD=1.76e-06	PS=9.2e-07	simW=6e-07 fw=6e-07
MI1/I198/I0/avD7_1	I1/I198/I0/avC11	I1/avC15#21	vdd!#698
+ vdd!#643	pmos1v#20ivpcell#20gpdk090	L=1e-07	W=4.8e-07
+ AD=2.88e-14	AS=1.344e-13	PD=6e-07	PS=1.52e-06	simW=4.8e-07 fw=4.8e-07
MI1/I198/I0/avD7_2	I1/I198/I0/avC7#11	CLK#440
+ I1/I198/I0/avC11	vdd!#643	pmos1v#20ivpcell#20gpdk090	L=1e-07
+ W=4.8e-07
+ AD=1.344e-13	AS=2.88e-14	PD=1.52e-06	PS=6e-07
+ simW=4.8e-07 fw=4.8e-07
MI1/I201/I1/avD7_1	I1/avC12#11	I1/avC6#27	I1/I201/avC10#9
+ vdd!#643	pmos1v#20ivpcell#20gpdk090	L=1e-07	W=6e-07
+ AD=9.6e-14	AS=1.68e-13	PD=9.2e-07	PS=1.76e-06	simW=6e-07 fw=6e-07
MI1/I201/I1/avD7_2	vdd!#740	Set#85	I1/avC12#11	vdd!#643
+ pmos1v#20ivpcell#20gpdk090	L=1e-07	W=6e-07
+ AD=1.68e-13	AS=9.6e-14	PD=1.76e-06	PS=9.2e-07	simW=6e-07 fw=6e-07
MI1/I201/I0/avD7_1	I1/I201/I0/avC11	I1/avC14#3	vdd!#717
+ vdd!#643	pmos1v#20ivpcell#20gpdk090	L=1e-07	W=4.8e-07
+ AD=2.88e-14	AS=1.344e-13	PD=6e-07	PS=1.52e-06	simW=4.8e-07 fw=4.8e-07
MI1/I201/I0/avD7_2	I1/I201/I0/avC7#6	CLK#266
+ I1/I201/I0/avC11	vdd!#643	pmos1v#20ivpcell#20gpdk090	L=1e-07
+ W=4.8e-07
+ AD=1.344e-13	AS=2.88e-14	PD=1.52e-06	PS=6e-07
+ simW=4.8e-07 fw=4.8e-07
MI1/I202/I1/avD7_1	I1/avC8#9	I1/avC6#11	I1/I202/avC10#9
+ vdd!#643	pmos1v#20ivpcell#20gpdk090	L=1e-07	W=6e-07
+ AD=9.6e-14	AS=1.68e-13	PD=9.2e-07	PS=1.76e-06	simW=6e-07 fw=6e-07
MI1/I202/I1/avD7_2	vdd!#767	Set#37	I1/avC8#9	vdd!#643
+ pmos1v#20ivpcell#20gpdk090	L=1e-07	W=6e-07
+ AD=1.68e-13	AS=9.6e-14	PD=1.76e-06	PS=9.2e-07	simW=6e-07 fw=6e-07
MI1/I202/I0/avD7_1	I1/I202/I0/avC11	I1/avC12#3	vdd!#743
+ vdd!#643	pmos1v#20ivpcell#20gpdk090	L=1e-07	W=4.8e-07
+ AD=2.88e-14	AS=1.344e-13	PD=6e-07	PS=1.52e-06	simW=4.8e-07 fw=4.8e-07
MI1/I202/I0/avD7_2	I1/I202/I0/avC7#6	CLK#177
+ I1/I202/I0/avC11	vdd!#643	pmos1v#20ivpcell#20gpdk090	L=1e-07
+ W=4.8e-07
+ AD=1.344e-13	AS=2.88e-14	PD=1.52e-06	PS=6e-07
+ simW=4.8e-07 fw=4.8e-07
MI1/I199/I1/avD7_1	I1/avC19#10	I1/avC6#75	I1/I199/avC10#11
+ vdd!#643	pmos1v#20ivpcell#20gpdk090	L=1e-07	W=6e-07
+ AD=9.6e-14	AS=1.68e-13	PD=9.2e-07	PS=1.76e-06	simW=6e-07 fw=6e-07
MI1/I199/I1/avD7_2	vdd!#632	Set#326	I1/avC19#10
+ vdd!#643	pmos1v#20ivpcell#20gpdk090	L=1e-07	W=6e-07
+ AD=1.68e-13	AS=9.6e-14	PD=1.76e-06	PS=9.2e-07	simW=6e-07 fw=6e-07
MI1/I199/I0/avD7_1	I1/I199/I0/avC11	I1/avC17#18	vdd!#645
+ vdd!#643	pmos1v#20ivpcell#20gpdk090	L=1e-07	W=4.8e-07
+ AD=2.88e-14	AS=1.344e-13	PD=6e-07	PS=1.52e-06	simW=4.8e-07 fw=4.8e-07
MI1/I199/I0/avD7_2	I1/I199/I0/avC7#4	CLK#680
+ I1/I199/I0/avC11	vdd!#643	pmos1v#20ivpcell#20gpdk090	L=1e-07
+ W=4.8e-07
+ AD=1.344e-13	AS=2.88e-14	PD=1.52e-06	PS=6e-07
+ simW=4.8e-07 fw=4.8e-07
MI1/I197/I1/avD7_1	I1/avC10#5	I1/avC6#38	I1/I197/avC10#11
+ vdd!#643	pmos1v#20ivpcell#20gpdk090	L=1e-07	W=6e-07
+ AD=9.6e-14	AS=1.68e-13	PD=9.2e-07	PS=1.76e-06	simW=6e-07 fw=6e-07
MI1/I197/I1/avD7_2	vdd!#705	Set#159	I1/avC10#5
+ vdd!#643	pmos1v#20ivpcell#20gpdk090	L=1e-07	W=6e-07
+ AD=1.68e-13	AS=9.6e-14	PD=1.76e-06	PS=9.2e-07	simW=6e-07 fw=6e-07
MI1/I197/I0/avD7_1	I1/I197/I0/avC11	I1/avC13#11	vdd!#727
+ vdd!#643	pmos1v#20ivpcell#20gpdk090	L=1e-07	W=4.8e-07
+ AD=2.88e-14	AS=1.344e-13	PD=6e-07	PS=1.52e-06	simW=4.8e-07 fw=4.8e-07
MI1/I197/I0/avD7_2	I1/I197/I0/avC7#4	CLK#239
+ I1/I197/I0/avC11	vdd!#643	pmos1v#20ivpcell#20gpdk090	L=1e-07
+ W=4.8e-07
+ AD=1.344e-13	AS=2.88e-14	PD=1.52e-06	PS=6e-07
+ simW=4.8e-07 fw=4.8e-07
MI1/I196/I1/avD7_1	I1/avC13	I1/avC6#17	I1/I196/avC10#11
+ vdd!#643	pmos1v#20ivpcell#20gpdk090	L=1e-07	W=6e-07
+ AD=9.6e-14	AS=1.68e-13	PD=9.2e-07	PS=1.76e-06	simW=6e-07 fw=6e-07
MI1/I196/I1/avD7_2	vdd!#734	Set#106	I1/avC13
+ vdd!#643	pmos1v#20ivpcell#20gpdk090	L=1e-07	W=6e-07
+ AD=1.68e-13	AS=9.6e-14	PD=1.76e-06	PS=9.2e-07	simW=6e-07 fw=6e-07
MI1/I196/I0/avD7_1	I1/I196/I0/avC11	avC11#32	vdd!#753
+ vdd!#643	pmos1v#20ivpcell#20gpdk090	L=1e-07	W=4.8e-07
+ AD=2.88e-14	AS=1.344e-13	PD=6e-07	PS=1.52e-06	simW=4.8e-07 fw=4.8e-07
MI1/I196/I0/avD7_2	I1/I196/I0/avC7#4	CLK#142
+ I1/I196/I0/avC11	vdd!#643	pmos1v#20ivpcell#20gpdk090	L=1e-07
+ W=4.8e-07
+ AD=1.344e-13	AS=2.88e-14	PD=1.52e-06	PS=6e-07
+ simW=4.8e-07 fw=4.8e-07
MI1/I203/I1/avD7_1	I1/avC11	I1/avC6#4	I1/I203/avC10#8
+ vdd!#643	pmos1v#20ivpcell#20gpdk090	L=1e-07	W=6e-07
+ AD=9.6e-14	AS=1.68e-13	PD=9.2e-07	PS=1.76e-06	simW=6e-07 fw=6e-07
MI1/I203/I1/avD7_2	vdd!#773	Set#18	I1/avC11	vdd!#643
+ pmos1v#20ivpcell#20gpdk090	L=1e-07	W=6e-07
+ AD=1.68e-13	AS=9.6e-14	PD=1.76e-06	PS=9.2e-07	simW=6e-07 fw=6e-07
MI1/I203/I0/avD7_1	I1/I203/I0/avC11	I1/avC8#4	vdd!#760
+ vdd!#643	pmos1v#20ivpcell#20gpdk090	L=1e-07	W=4.8e-07
+ AD=2.88e-14	AS=1.344e-13	PD=6e-07	PS=1.52e-06	simW=4.8e-07 fw=4.8e-07
MI1/I203/I0/avD7_2	I1/I203/I0/avC7#6	CLK#96	I1/I203/I0/avC11
+ vdd!#643	pmos1v#20ivpcell#20gpdk090	L=1e-07	W=4.8e-07
+ AD=1.344e-13	AS=2.88e-14	PD=1.52e-06	PS=6e-07	simW=4.8e-07 fw=4.8e-07
MI0/I33/avD7_1	I0/I33/avC7#3	avC10#38	vdd!#589	vdd!#492
+ pmos1v#20ivpcell#20gpdk090	L=1e-07	W=2.4e-07
+ AD=6.72e-14	AS=6.72e-14	PD=1.04e-06	PS=1.04e-06	simW=2.4e-07 fw=2.4e-07
MI0/I33/avD7_2	I0/I33/avC6#5	I0/avC10#14	vdd!#583	vdd!#492
+ pmos1v#20ivpcell#20gpdk090	L=1e-07	W=9e-07
+ AD=1.44e-13	AS=2.52e-13	PD=1.22e-06	PS=2.36e-06	simW=9e-07 fw=9e-07
MI0/I33/avD7_3	I0/avC12#6	I0/I33/avC7#13	I0/I33/avC6#5	vdd!#492
+ pmos1v#20ivpcell#20gpdk090	L=1e-07	W=9e-07
+ AD=2.52e-13	AS=1.44e-13	PD=2.36e-06	PS=1.22e-06	simW=9e-07 fw=9e-07
MI0/I33/avD7_4	I0/avC12#20	I0/I33/avC6#9	I0/I33/avC7#16	vdd!#492
+ pmos1v#20ivpcell#20gpdk090	L=1e-07	W=2.4e-07
+ AD=6.72e-14	AS=6.72e-14	PD=1.04e-06	PS=1.04e-06	simW=2.4e-07 fw=2.4e-07
MI0/I11/avD7_1	avC10#28	I0/avC7#3	vdd!#608	vdd!#492
+ pmos1v#20ivpcell#20gpdk090	L=1e-07	W=4.8e-07
+ AD=1.344e-13	AS=1.344e-13	PD=1.52e-06	PS=1.52e-06	simW=4.8e-07 fw=4.8e-07
MI0/I7/avD7_1	I0/avC7#10	I0/avC11#3	vdd!#602	vdd!#492
+ pmos1v#20ivpcell#20gpdk090	L=1e-07	W=2.4e-07
+ AD=6.72e-14	AS=6.72e-14	PD=1.04e-06	PS=1.04e-06	simW=2.4e-07 fw=2.4e-07
MI0/I14/I1/avD7_1	I0/avC15#11	I0/avC9#54	I0/I14/avC10#9
+ vdd!#492	pmos1v#20ivpcell#20gpdk090	L=1e-07	W=6e-07
+ AD=9.6e-14	AS=1.68e-13	PD=9.2e-07	PS=1.76e-06	simW=6e-07 fw=6e-07
MI0/I14/I1/avD7_2	vdd!#496	Set#283	I0/avC15#11
+ vdd!#492	pmos1v#20ivpcell#20gpdk090	L=1e-07	W=6e-07
+ AD=1.68e-13	AS=9.6e-14	PD=1.76e-06	PS=9.2e-07	simW=6e-07 fw=6e-07
MI0/I14/I0/avD7_1	I0/I14/I0/avC11	I0/avC16#11	vdd!#489
+ vdd!#492	pmos1v#20ivpcell#20gpdk090	L=1e-07	W=4.8e-07
+ AD=2.88e-14	AS=1.344e-13	PD=6e-07	PS=1.52e-06	simW=4.8e-07 fw=4.8e-07
MI0/I14/I0/avD7_2	I0/I14/I0/avC7#6	CLK#730	I0/I14/I0/avC11
+ vdd!#492	pmos1v#20ivpcell#20gpdk090	L=1e-07	W=4.8e-07
+ AD=1.344e-13	AS=2.88e-14	PD=1.52e-06	PS=6e-07	simW=4.8e-07 fw=4.8e-07
MI0/I15/I1/avD7_1	I0/avC14#11	I0/avC9#46	I0/I15/avC10#9
+ vdd!#492	pmos1v#20ivpcell#20gpdk090	L=1e-07	W=6e-07
+ AD=9.6e-14	AS=1.68e-13	PD=9.2e-07	PS=1.76e-06	simW=6e-07 fw=6e-07
MI0/I15/I1/avD7_2	vdd!#544	Set#222	I0/avC14#11
+ vdd!#492	pmos1v#20ivpcell#20gpdk090	L=1e-07	W=6e-07
+ AD=1.68e-13	AS=9.6e-14	PD=1.76e-06	PS=9.2e-07	simW=6e-07 fw=6e-07
MI0/I15/I0/avD7_1	I0/I15/I0/avC11	I0/avC15#3	vdd!#519
+ vdd!#492	pmos1v#20ivpcell#20gpdk090	L=1e-07	W=4.8e-07
+ AD=2.88e-14	AS=1.344e-13	PD=6e-07	PS=1.52e-06	simW=4.8e-07 fw=4.8e-07
MI0/I15/I0/avD7_2	I0/I15/I0/avC7#6	CLK#614	I0/I15/I0/avC11
+ vdd!#492	pmos1v#20ivpcell#20gpdk090	L=1e-07	W=4.8e-07
+ AD=1.344e-13	AS=2.88e-14	PD=1.52e-06	PS=6e-07	simW=4.8e-07 fw=4.8e-07
MI0/I16/I1/avD7_1	I0/avC13#11	I0/avC9#19	I0/I16/avC10#9
+ vdd!#492	pmos1v#20ivpcell#20gpdk090	L=1e-07	W=6e-07
+ AD=9.6e-14	AS=1.68e-13	PD=9.2e-07	PS=1.76e-06	simW=6e-07 fw=6e-07
MI0/I16/I1/avD7_2	vdd!#570	Set#155	I0/avC13#11
+ vdd!#492	pmos1v#20ivpcell#20gpdk090	L=1e-07	W=6e-07
+ AD=1.68e-13	AS=9.6e-14	PD=1.76e-06	PS=9.2e-07	simW=6e-07 fw=6e-07
MI0/I16/I0/avD7_1	I0/I16/I0/avC11	I0/avC14#3	vdd!#550
+ vdd!#492	pmos1v#20ivpcell#20gpdk090	L=1e-07	W=4.8e-07
+ AD=2.88e-14	AS=1.344e-13	PD=6e-07	PS=1.52e-06	simW=4.8e-07 fw=4.8e-07
MI0/I16/I0/avD7_2	I0/I16/I0/avC7#6	CLK#469	I0/I16/I0/avC11
+ vdd!#492	pmos1v#20ivpcell#20gpdk090	L=1e-07	W=4.8e-07
+ AD=1.344e-13	AS=2.88e-14	PD=1.52e-06	PS=6e-07	simW=4.8e-07 fw=4.8e-07
MI0/I18/I1/avD7_1	I0/avC11#11	I0/avC9#11	I0/I18/avC10#9
+ vdd!#492	pmos1v#20ivpcell#20gpdk090	L=1e-07	W=6e-07
+ AD=9.6e-14	AS=1.68e-13	PD=9.2e-07	PS=1.76e-06	simW=6e-07 fw=6e-07
MI0/I18/I1/avD7_2	vdd!#593	Set#100	I0/avC11#11
+ vdd!#492	pmos1v#20ivpcell#20gpdk090	L=1e-07	W=6e-07
+ AD=1.68e-13	AS=9.6e-14	PD=1.76e-06	PS=9.2e-07	simW=6e-07 fw=6e-07
MI0/I18/I0/avD7_1	I0/I18/I0/avC11	I0/avC13#3	vdd!#573
+ vdd!#492	pmos1v#20ivpcell#20gpdk090	L=1e-07	W=4.8e-07
+ AD=2.88e-14	AS=1.344e-13	PD=6e-07	PS=1.52e-06	simW=4.8e-07 fw=4.8e-07
MI0/I18/I0/avD7_2	I0/I18/I0/avC7#6	CLK#331	I0/I18/I0/avC11
+ vdd!#492	pmos1v#20ivpcell#20gpdk090	L=1e-07	W=4.8e-07
+ AD=1.344e-13	AS=2.88e-14	PD=1.52e-06	PS=6e-07	simW=4.8e-07 fw=4.8e-07
MI0/I13/I1/avD7_1	I0/avC16#2	I0/avC9#64	I0/I13/avC10#12
+ vdd!#492	pmos1v#20ivpcell#20gpdk090	L=1e-07	W=6e-07
+ AD=9.6e-14	AS=1.68e-13	PD=9.2e-07	PS=1.76e-06	simW=6e-07 fw=6e-07
MI0/I13/I1/avD7_2	vdd!#287	Set#298	I0/avC16#2
+ vdd!#492	pmos1v#20ivpcell#20gpdk090	L=1e-07	W=6e-07
+ AD=1.68e-13	AS=9.6e-14	PD=1.76e-06	PS=9.2e-07	simW=6e-07 fw=6e-07
MI0/I13/I0/avD7_1	I0/I13/I0/avC11	I0/avC8#16	vdd!#511
+ vdd!#492	pmos1v#20ivpcell#20gpdk090	L=1e-07	W=4.8e-07
+ AD=2.88e-14	AS=1.344e-13	PD=6e-07	PS=1.52e-06	simW=4.8e-07 fw=4.8e-07
MI0/I13/I0/avD7_2	I0/I13/I0/avC7#8	CLK#642	I0/I13/I0/avC11
+ vdd!#492	pmos1v#20ivpcell#20gpdk090	L=1e-07	W=4.8e-07
+ AD=1.344e-13	AS=2.88e-14	PD=1.52e-06	PS=6e-07	simW=4.8e-07 fw=4.8e-07
MI0/I6/I1/avD7_1	I0/avC8	I0/avC9#29	I0/I6/avC10#11
+ vdd!#492	pmos1v#20ivpcell#20gpdk090	L=1e-07	W=6e-07
+ AD=9.6e-14	AS=1.68e-13	PD=9.2e-07	PS=1.76e-06	simW=6e-07 fw=6e-07
MI0/I6/I1/avD7_2	vdd!#191	Set#181	I0/avC8
+ vdd!#492	pmos1v#20ivpcell#20gpdk090	L=1e-07	W=6e-07
+ AD=1.68e-13	AS=9.6e-14	PD=1.76e-06	PS=9.2e-07	simW=6e-07 fw=6e-07
MI0/I6/I0/avD7_1	I0/I6/I0/avC11	I0/avC12#14	vdd!#577
+ vdd!#492	pmos1v#20ivpcell#20gpdk090	L=1e-07	W=4.8e-07
+ AD=2.88e-14	AS=1.344e-13	PD=6e-07	PS=1.52e-06	simW=4.8e-07 fw=4.8e-07
MI0/I6/I0/avD7_2	I0/I6/I0/avC7#4	CLK#326	I0/I6/I0/avC11
+ vdd!#492	pmos1v#20ivpcell#20gpdk090	L=1e-07	W=4.8e-07
+ AD=1.344e-13	AS=2.88e-14	PD=1.52e-06	PS=6e-07	simW=4.8e-07 fw=4.8e-07
MI0/I17/I1/avD7_1	I0/avC10	I0/avC9#5	I0/I17/avC10#11
+ vdd!#492	pmos1v#20ivpcell#20gpdk090	L=1e-07	W=6e-07
+ AD=9.6e-14	AS=1.68e-13	PD=9.2e-07	PS=1.76e-06	simW=6e-07 fw=6e-07
MI0/I17/I1/avD7_2	vdd!#597	Set#68	I0/avC10	vdd!#492
+ pmos1v#20ivpcell#20gpdk090	L=1e-07	W=6e-07
+ AD=1.68e-13	AS=9.6e-14	PD=1.76e-06	PS=9.2e-07	simW=6e-07 fw=6e-07
MI0/I17/I0/avD7_1	I0/I17/I0/avC11	avC10#20	vdd!#612
+ vdd!#492	pmos1v#20ivpcell#20gpdk090	L=1e-07	W=4.8e-07
+ AD=2.88e-14	AS=1.344e-13	PD=6e-07	PS=1.52e-06	simW=4.8e-07 fw=4.8e-07
MI0/I17/I0/avD7_2	I0/I17/I0/avC7#4	CLK#106	I0/I17/I0/avC11
+ vdd!#492	pmos1v#20ivpcell#20gpdk090	L=1e-07	W=4.8e-07
+ AD=1.344e-13	AS=2.88e-14	PD=1.52e-06	PS=6e-07	simW=4.8e-07 fw=4.8e-07
MI3/I398/avD7_1	I3/I398/avC7#3	avC12#63	vdd!#890	vdd!#825
+ pmos1v#20ivpcell#20gpdk090	L=1e-07	W=2.4e-07
+ AD=6.72e-14	AS=6.72e-14	PD=1.04e-06	PS=1.04e-06	simW=2.4e-07 fw=2.4e-07
MI3/I398/avD7_2	I3/I398/avC6#5	I3/avC16#14	vdd!#877	vdd!#825
+ pmos1v#20ivpcell#20gpdk090	L=1e-07	W=9e-07
+ AD=1.44e-13	AS=2.52e-13	PD=1.22e-06	PS=2.36e-06	simW=9e-07 fw=9e-07
MI3/I398/avD7_3	I3/avC17#6	I3/I398/avC7#13	I3/I398/avC6#5
+ vdd!#825	pmos1v#20ivpcell#20gpdk090	L=1e-07	W=9e-07
+ AD=2.52e-13	AS=1.44e-13	PD=2.36e-06	PS=1.22e-06	simW=9e-07 fw=9e-07
MI3/I398/avD7_4	I3/avC17#17	I3/I398/avC6#9	I3/I398/avC7#14
+ vdd!#825	pmos1v#20ivpcell#20gpdk090	L=1e-07	W=2.4e-07
+ AD=6.72e-14	AS=6.72e-14	PD=1.04e-06	PS=1.04e-06	simW=2.4e-07 fw=2.4e-07
MI3/I26/avD7_1	avC12#50	I3/avC6	vdd!#982	vdd!#825
+ pmos1v#20ivpcell#20gpdk090	L=1e-07	W=4.8e-07
+ AD=1.344e-13	AS=1.344e-13	PD=1.52e-06	PS=1.52e-06	simW=4.8e-07 fw=4.8e-07
MI3/I25/avD7_1	I3/avC6#4	I3/avC11#14	vdd!#998	vdd!#825
+ pmos1v#20ivpcell#20gpdk090	L=1e-07	W=2.4e-07
+ AD=6.72e-14	AS=6.72e-14	PD=1.04e-06	PS=1.04e-06	simW=2.4e-07 fw=2.4e-07
MI3/I390/I1/avD7_1	I3/avC20#11	I3/avC8#105	I3/I390/avC10#9
+ vdd!#825	pmos1v#20ivpcell#20gpdk090	L=1e-07	W=6e-07
+ AD=9.6e-14	AS=1.68e-13	PD=9.2e-07	PS=1.76e-06	simW=6e-07 fw=6e-07
MI3/I390/I1/avD7_2	vdd!#852	Set#311	I3/avC20#11
+ vdd!#825	pmos1v#20ivpcell#20gpdk090	L=1e-07	W=6e-07
+ AD=1.68e-13	AS=9.6e-14	PD=1.76e-06	PS=9.2e-07	simW=6e-07 fw=6e-07
MI3/I390/I0/avD7_1	I3/I390/I0/avC11	I3/avC10#15	vdd!#822
+ vdd!#825	pmos1v#20ivpcell#20gpdk090	L=1e-07	W=4.8e-07
+ AD=2.88e-14	AS=1.344e-13	PD=6e-07	PS=1.52e-06	simW=4.8e-07 fw=4.8e-07
MI3/I390/I0/avD7_2	I3/I390/I0/avC7#6	CLK#762
+ I3/I390/I0/avC11	vdd!#825	pmos1v#20ivpcell#20gpdk090	L=1e-07
+ W=4.8e-07
+ AD=1.344e-13	AS=2.88e-14	PD=1.52e-06	PS=6e-07
+ simW=4.8e-07 fw=4.8e-07
MI3/I391/I1/avD7_1	I3/avC18#11	I3/avC8#85	I3/I391/avC10#9
+ vdd!#825	pmos1v#20ivpcell#20gpdk090	L=1e-07	W=6e-07
+ AD=9.6e-14	AS=1.68e-13	PD=9.2e-07	PS=1.76e-06	simW=6e-07 fw=6e-07
MI3/I391/I1/avD7_2	vdd!#875	Set#278	I3/avC18#11
+ vdd!#825	pmos1v#20ivpcell#20gpdk090	L=1e-07	W=6e-07
+ AD=1.68e-13	AS=9.6e-14	PD=1.76e-06	PS=9.2e-07	simW=6e-07 fw=6e-07
MI3/I391/I0/avD7_1	I3/I391/I0/avC11	I3/avC20#3	vdd!#858
+ vdd!#825	pmos1v#20ivpcell#20gpdk090	L=1e-07	W=4.8e-07
+ AD=2.88e-14	AS=1.344e-13	PD=6e-07	PS=1.52e-06	simW=4.8e-07 fw=4.8e-07
MI3/I391/I0/avD7_2	I3/I391/I0/avC7#6	CLK#714
+ I3/I391/I0/avC11	vdd!#825	pmos1v#20ivpcell#20gpdk090	L=1e-07
+ W=4.8e-07
+ AD=1.344e-13	AS=2.88e-14	PD=1.52e-06	PS=6e-07
+ simW=4.8e-07 fw=4.8e-07
MI3/I392/I1/avD7_1	I3/avC15#11	I3/avC8#75	I3/I392/avC10#9
+ vdd!#825	pmos1v#20ivpcell#20gpdk090	L=1e-07	W=6e-07
+ AD=9.6e-14	AS=1.68e-13	PD=9.2e-07	PS=1.76e-06	simW=6e-07 fw=6e-07
MI3/I392/I1/avD7_2	vdd!#900	Set#217	I3/avC15#11
+ vdd!#825	pmos1v#20ivpcell#20gpdk090	L=1e-07	W=6e-07
+ AD=1.68e-13	AS=9.6e-14	PD=1.76e-06	PS=9.2e-07	simW=6e-07 fw=6e-07
MI3/I392/I0/avD7_1	I3/I392/I0/avC11	I3/avC18#3	vdd!#881
+ vdd!#825	pmos1v#20ivpcell#20gpdk090	L=1e-07	W=4.8e-07
+ AD=2.88e-14	AS=1.344e-13	PD=6e-07	PS=1.52e-06	simW=4.8e-07 fw=4.8e-07
MI3/I392/I0/avD7_2	I3/I392/I0/avC7#6	CLK#573
+ I3/I392/I0/avC11	vdd!#825	pmos1v#20ivpcell#20gpdk090	L=1e-07
+ W=4.8e-07
+ AD=1.344e-13	AS=2.88e-14	PD=1.52e-06	PS=6e-07
+ simW=4.8e-07 fw=4.8e-07
MI3/I393/I1/avD7_1	I3/avC14#11	I3/avC8#49	I3/I393/avC10#9
+ vdd!#825	pmos1v#20ivpcell#20gpdk090	L=1e-07	W=6e-07
+ AD=9.6e-14	AS=1.68e-13	PD=9.2e-07	PS=1.76e-06	simW=6e-07 fw=6e-07
MI3/I393/I1/avD7_2	vdd!#926	Set#144	I3/avC14#11
+ vdd!#825	pmos1v#20ivpcell#20gpdk090	L=1e-07	W=6e-07
+ AD=1.68e-13	AS=9.6e-14	PD=1.76e-06	PS=9.2e-07	simW=6e-07 fw=6e-07
MI3/I393/I0/avD7_1	I3/I393/I0/avC11	I3/avC15#3	vdd!#903
+ vdd!#825	pmos1v#20ivpcell#20gpdk090	L=1e-07	W=4.8e-07
+ AD=2.88e-14	AS=1.344e-13	PD=6e-07	PS=1.52e-06	simW=4.8e-07 fw=4.8e-07
MI3/I393/I0/avD7_2	I3/I393/I0/avC7#6	CLK#441
+ I3/I393/I0/avC11	vdd!#825	pmos1v#20ivpcell#20gpdk090	L=1e-07
+ W=4.8e-07
+ AD=1.344e-13	AS=2.88e-14	PD=1.52e-06	PS=6e-07
+ simW=4.8e-07 fw=4.8e-07
MI3/I394/I1/avD7_1	I3/avC13#11	I3/avC8#33	I3/I394/avC10#9
+ vdd!#825	pmos1v#20ivpcell#20gpdk090	L=1e-07	W=6e-07
+ AD=9.6e-14	AS=1.68e-13	PD=9.2e-07	PS=1.76e-06	simW=6e-07 fw=6e-07
MI3/I394/I1/avD7_2	vdd!#960	Set#95	I3/avC13#11	vdd!#825
+ pmos1v#20ivpcell#20gpdk090	L=1e-07	W=6e-07
+ AD=1.68e-13	AS=9.6e-14	PD=1.76e-06	PS=9.2e-07	simW=6e-07 fw=6e-07
MI3/I394/I0/avD7_1	I3/I394/I0/avC11	I3/avC14#3	vdd!#932
+ vdd!#825	pmos1v#20ivpcell#20gpdk090	L=1e-07	W=4.8e-07
+ AD=2.88e-14	AS=1.344e-13	PD=6e-07	PS=1.52e-06	simW=4.8e-07 fw=4.8e-07
MI3/I394/I0/avD7_2	I3/I394/I0/avC7#6	CLK#275
+ I3/I394/I0/avC11	vdd!#825	pmos1v#20ivpcell#20gpdk090	L=1e-07
+ W=4.8e-07
+ AD=1.344e-13	AS=2.88e-14	PD=1.52e-06	PS=6e-07
+ simW=4.8e-07 fw=4.8e-07
MI3/I399/I1/avD7_1	I3/avC12#11	I3/avC8#13	I3/I399/avC10#9
+ vdd!#825	pmos1v#20ivpcell#20gpdk090	L=1e-07	W=6e-07
+ AD=9.6e-14	AS=1.68e-13	PD=9.2e-07	PS=1.76e-06	simW=6e-07 fw=6e-07
MI3/I399/I1/avD7_2	vdd!#986	Set#43	I3/avC12#11	vdd!#825
+ pmos1v#20ivpcell#20gpdk090	L=1e-07	W=6e-07
+ AD=1.68e-13	AS=9.6e-14	PD=1.76e-06	PS=9.2e-07	simW=6e-07 fw=6e-07
MI3/I399/I0/avD7_1	I3/I399/I0/avC11	I3/avC13#3	vdd!#966
+ vdd!#825	pmos1v#20ivpcell#20gpdk090	L=1e-07	W=4.8e-07
+ AD=2.88e-14	AS=1.344e-13	PD=6e-07	PS=1.52e-06	simW=4.8e-07 fw=4.8e-07
MI3/I399/I0/avD7_2	I3/I399/I0/avC7#6	CLK#189
+ I3/I399/I0/avC11	vdd!#825	pmos1v#20ivpcell#20gpdk090	L=1e-07
+ W=4.8e-07
+ AD=1.344e-13	AS=2.88e-14	PD=1.52e-06	PS=6e-07
+ simW=4.8e-07 fw=4.8e-07
MI3/I400/I1/avD7_1	I3/avC11#5	I3/avC8#3	I3/I400/avC10#9
+ vdd!#825	pmos1v#20ivpcell#20gpdk090	L=1e-07	W=6e-07
+ AD=9.6e-14	AS=1.68e-13	PD=9.2e-07	PS=1.76e-06	simW=6e-07 fw=6e-07
MI3/I400/I1/avD7_2	vdd!#1006	Set#13	I3/avC11#5	vdd!#825
+ pmos1v#20ivpcell#20gpdk090	L=1e-07	W=6e-07
+ AD=1.68e-13	AS=9.6e-14	PD=1.76e-06	PS=9.2e-07	simW=6e-07 fw=6e-07
MI3/I400/I0/avD7_1	I3/I400/I0/avC11	I3/avC12#3	vdd!#989
+ vdd!#825	pmos1v#20ivpcell#20gpdk090	L=1e-07	W=4.8e-07
+ AD=2.88e-14	AS=1.344e-13	PD=6e-07	PS=1.52e-06	simW=4.8e-07 fw=4.8e-07
MI3/I400/I0/avD7_2	I3/I400/I0/avC7#6	CLK#79	I3/I400/I0/avC11
+ vdd!#825	pmos1v#20ivpcell#20gpdk090	L=1e-07	W=4.8e-07
+ AD=1.344e-13	AS=2.88e-14	PD=1.52e-06	PS=6e-07	simW=4.8e-07 fw=4.8e-07
MI3/I389/I1/avD7_1	I3/avC10	I3/avC8#118	I3/I389/avC10#11
+ vdd!#825	pmos1v#20ivpcell#20gpdk090	L=1e-07	W=6e-07
+ AD=9.6e-14	AS=1.68e-13	PD=9.2e-07	PS=1.76e-06	simW=6e-07 fw=6e-07
MI3/I389/I1/avD7_2	vdd!#830	Set#335	I3/avC10
+ vdd!#825	pmos1v#20ivpcell#20gpdk090	L=1e-07	W=6e-07
+ AD=1.68e-13	AS=9.6e-14	PD=1.76e-06	PS=9.2e-07	simW=6e-07 fw=6e-07
MI3/I389/I0/avD7_1	I3/I389/I0/avC11	I3/avC19#11	vdd!#845
+ vdd!#825	pmos1v#20ivpcell#20gpdk090	L=1e-07	W=4.8e-07
+ AD=2.88e-14	AS=1.344e-13	PD=6e-07	PS=1.52e-06	simW=4.8e-07 fw=4.8e-07
[...]
C28775	I0/avC6#30	gnd!	2.09822e-19	$X=36.044 $Y=21.947
C28776	I0/avC6#31	gnd!	2.92526e-19	$X=35.994 $Y=22.0425
C28777	CLK#336	gnd!	4.23721e-19	$X=36.0275 $Y=21.6735
C28778	I3/avC14#2	gnd!	1.34954e-18	$X=35.77 $Y=3.241
C28779	I0/avC6#36	gnd!	1.44983e-18	$X=35.239 $Y=21.55
C28780	I0/avC13#2	gnd!	1.85769e-19	$X=36.149 $Y=21.681
C28781	I2/I339/I0/avC7#7	gnd!	1.59558e-18	$X=36.6435 $Y=8.841
C28782	I2/I339/I0/avC7#9	gnd!	1.9666e-18	$X=36.509 $Y=9.3855
C28783	I2/I339/I0/avC7#11	gnd!	2.64924e-18	$X=36.7475 $Y=9.898
C28784	I0/I6/I0/avC7#2	gnd!	1.00308e-19	$X=35.9425 $Y=18.089
C28785	I1/avC10#6	gnd!	1.37995e-18	$X=36.914 $Y=12.599
C28786	I1/avC10#10	gnd!	2.71346e-18	$X=37.018 $Y=11.4455
C28787	I3/avC14#6	gnd!	3.16306e-18	$X=37.109 $Y=3.7665
C28788	I3/avC14#8	gnd!	2.98193e-19	$X=36.6815 $Y=3.501
C28789	I3/avC14#12	gnd!	4.88415e-19	$X=36.959 $Y=2.593
C28790	I2/avC8#84	gnd!	2.37851e-19	$X=37.1135 $Y=9.5215
C28791	I2/avC8#85	gnd!	5.72545e-19	$X=37.0615 $Y=9.6455
C28792	CLK#350	gnd!	3.42368e-19	$X=37.0065 $Y=9.1075
C28793	CLK#351	gnd!	8.0597e-19	$X=37.0965 $Y=9.2575
C28794	CLK#354	gnd!	2.49977e-18	$X=35.8435 $Y=9.282
C28795	I0/avC13#6	gnd!	1.99598e-18	$X=37.4905 $Y=22.3725
C28796	I0/avC13#8	gnd!	3.77078e-19	$X=37.0655 $Y=21.985
C28797	I0/avC13#12	gnd!	6.44323e-19	$X=37.339 $Y=21.079
C28798	Set#157	gnd!	1.44832e-18	$X=37.1015 $Y=11.9515
C28799	I3/avC8#48	gnd!	7.20151e-19	$X=37.1265 $Y=3.2595
C28800	I3/avC8#53	gnd!	1.7979e-18	$X=36.291 $Y=0.3225
C28801	I3/avC8#55	gnd!	3.21417e-18	$X=37.0665 $Y=-0.1985
C28802	I2/avC14#2	gnd!	2.57244e-19	$X=37.2075 $Y=9.386
C28803	I0/I6/I0/avC8#6	gnd!	3.74691e-18	$X=36.526 $Y=17.525
C28804	I0/avC9#18	gnd!	1.82159e-18	$X=37.5055 $Y=21.713
C28805	I1/avC15#5	gnd!	8.89091e-19	$X=38.014 $Y=14.526
C28806	Set#164	gnd!	8.08708e-19	$X=37.9705 $Y=12.2115
C28807	Set#165	gnd!	1.82355e-18	$X=37.9135 $Y=12.336
C28808	I0/I6/avC10#7	gnd!	1.99712e-18	$X=38.0465 $Y=17.558
C28809	I3/I393/avC10#13	gnd!	1.86397e-19	$X=38.359 $Y=3.7765
C28810	I1/I204/avC6#2	gnd!	3.69579e-18	$X=38.466 $Y=15.9975
C28811	I1/I204/avC6#4	gnd!	3.27536e-18	$X=38.106 $Y=15.1525
C28812	I1/I204/avC6#6	gnd!	8.84153e-18	$X=37.231 $Y=14.794
C28813	CLK#367	gnd!	5.30898e-19	$X=38.4365 $Y=-0.273
C28814	CLK#368	gnd!	5.68329e-19	$X=38.485 $Y=-0.1395
C28815	I3/avC7#115	gnd!	6.98101e-19	$X=38.475 $Y=-0.7075
C28816	I3/avC7#118	gnd!	1.00431e-18	$X=38.5235 $Y=-0.607
C28817	CLK#375	gnd!	1.01898e-18	$X=34.444 $Y=21.326
C28818	I2/avC14#6	gnd!	1.99781e-18	$X=38.7575 $Y=9.9665
C28819	I2/avC14#8	gnd!	2.84079e-19	$X=38.234 $Y=9.6575
C28820	I2/avC14#12	gnd!	5.5515e-19	$X=38.598 $Y=8.7535
C28821	I0/I16/avC10#13	gnd!	7.4631e-19	$X=38.74 $Y=22.306
C28822	I3/avC7#121	gnd!	1.26069e-18	$X=36.2645 $Y=3.193
C28823	I1/I204/avC7#12	gnd!	9.78153e-19	$X=37.447 $Y=13.9505
C28824	I2/avC9#53	gnd!	1.3202e-18	$X=38.762 $Y=9.409
C28825	I0/avC6#51	gnd!	1.77873e-18	$X=36.6115 $Y=20.073
C28826	I2/avC9#57	gnd!	1.07377e-18	$X=39.108 $Y=8.8665
C28827	I0/avC8#2	gnd!	1.51882e-18	$X=39.365 $Y=18.786
C28828	I0/avC8#7	gnd!	2.32007e-18	$X=39.426 $Y=17.6335
C28829	I1/I204/avC7#15	gnd!	2.4492e-19	$X=38.8845 $Y=14.9105
C28830	I3/I397/I0/avC7#6	gnd!	7.92108e-19	$X=38.636 $Y=-0.3505
C28831	I3/I397/I0/avC7#11	gnd!	2.04292e-18	$X=38.6075 $Y=-0.9135
C28832	I3/I393/I0/avC8#6	gnd!	1.85457e-18	$X=39.5065 $Y=3.803
C28833	Set#179	gnd!	1.96015e-18	$X=39.4965 $Y=18.106
C28834	I2/I338/avC10#13	gnd!	4.12436e-19	$X=40.0015 $Y=9.9515
C28835	I0/I16/I0/avC8#6	gnd!	2.45406e-18	$X=39.8845 $Y=22.189
C28836	CLK#402	gnd!	1.49489e-18	$X=20.702 $Y=8.8915
C28837	I3/I397/I0/avC8#6	gnd!	2.20173e-18	$X=39.2115 $Y=-0.8605
C28838	I2/avC8#128	gnd!	1.08678e-18	$X=37.7605 $Y=8.818
C28839	I3/I393/I0/avC7#7	gnd!	2.81691e-18	$X=40.3655 $Y=2.697
C28840	I3/I393/I0/avC7#9	gnd!	1.15536e-18	$X=40.2315 $Y=3.2405
C28841	I3/I393/I0/avC7#11	gnd!	2.38655e-18	$X=40.487 $Y=3.7255
C28842	I1/avC7#80	gnd!	7.41796e-19	$X=40.8555 $Y=15.732
C28843	I1/avC7#81	gnd!	7.18354e-19	$X=40.7945 $Y=15.8415
C28844	CLK#444	gnd!	3.36906e-19	$X=40.731 $Y=15.2885
C28845	I3/I397/avC10#7	gnd!	7.38326e-19	$X=40.753 $Y=-0.9705
C28846	I3/avC7#135	gnd!	1.23335e-18	$X=40.8755 $Y=3.3115
C28847	CLK#450	gnd!	6.06775e-19	$X=40.7505 $Y=2.9265
C28848	Set#195	gnd!	1.23553e-18	$X=39.9525 $Y=18.395
C28849	CLK#455	gnd!	2.75395e-18	$X=39.384 $Y=3.347
C28850	I0/I16/I0/avC7#7	gnd!	9.29758e-19	$X=40.7445 $Y=21.1345
C28851	I0/I16/I0/avC7#9	gnd!	2.32326e-18	$X=40.6105 $Y=21.6805
C28852	I0/I16/I0/avC7#11	gnd!	2.21207e-18	$X=40.8675 $Y=22.2485
C28853	I0/avC6#57	gnd!	2.09822e-19	$X=41.2585 $Y=21.947
C28854	I0/avC6#59	gnd!	2.92526e-19	$X=41.197 $Y=22.0425
C28855	CLK#463	gnd!	1.97919e-19	$X=41.2385 $Y=21.6735
C28856	I3/avC15#2	gnd!	6.1096e-19	$X=40.93 $Y=3.241
C28857	I2/I338/I0/avC8#6	gnd!	2.26087e-18	$X=41.1365 $Y=9.93
C28858	I0/avC9#42	gnd!	1.97419e-18	$X=40.8885 $Y=18.3185
C28859	I0/avC6#64	gnd!	1.1834e-18	$X=40.539 $Y=21.673
C28860	CLK#473	gnd!	7.12846e-19	$X=39.5765 $Y=21.326
C28861	CLK#475	gnd!	8.66172e-19	$X=38.816 $Y=0.015
C28862	I2/avC9#68	gnd!	9.19261e-19	$X=41.2985 $Y=5.9795
C28863	I0/avC14#2	gnd!	1.8575e-19	$X=41.3095 $Y=21.681
C28864	I1/I198/I0/avC7#6	gnd!	1.20545e-18	$X=40.9405 $Y=15.531
C28865	I1/I198/I0/avC7#9	gnd!	8.09595e-19	$X=40.922 $Y=16.0705
C28866	I3/avC15#6	gnd!	2.25602e-18	$X=42.316 $Y=3.7665
C28867	I3/avC15#8	gnd!	3.56388e-19	$X=41.857 $Y=3.5005
C28868	I3/avC15#12	gnd!	1.10971e-18	$X=42.132 $Y=2.593
C28869	I2/I338/I0/avC7#7	gnd!	2.64696e-18	$X=42 $Y=8.841
C28870	I2/I338/I0/avC7#9	gnd!	1.39314e-18	$X=41.866 $Y=9.3855
C28871	I2/I338/I0/avC7#11	gnd!	1.56646e-18	$X=42.129 $Y=9.898
C28872	I1/avC7#91	gnd!	3.58903e-18	$X=26.176 $Y=11.3315
C28873	I2/avC8#134	gnd!	1.57979e-19	$X=42.5275 $Y=9.5215
C28874	I2/avC8#136	gnd!	3.39409e-19	$X=42.463 $Y=9.6455
C28875	CLK#482	gnd!	3.45181e-19	$X=42.395 $Y=9.1075
C28876	CLK#483	gnd!	6.7415e-19	$X=42.506 $Y=9.2575
C28877	CLK#486	gnd!	2.55738e-18	$X=41.0225 $Y=9.282
C28878	Set#226	gnd!	2.48592e-18	$X=42.192 $Y=-0.347
C28879	I0/avC14#6	gnd!	2.09512e-18	$X=42.6975 $Y=22.3725
C28880	I0/avC14#8	gnd!	3.77078e-19	$X=42.2395 $Y=21.985
C28881	I0/avC14#12	gnd!	8.53593e-19	$X=42.5125 $Y=21.079
C28882	I3/avC8#74	gnd!	8.93475e-19	$X=42.2905 $Y=3.2595
C28883	I1/I198/I0/avC8#6	gnd!	1.71745e-18	$X=41.509 $Y=16.057
C28884	I2/avC15#2	gnd!	3.67309e-19	$X=42.565 $Y=9.386
C28885	I0/avC9#45	gnd!	1.50079e-18	$X=42.67 $Y=21.713
C28886	I2/avC8#145	gnd!	2.4251e-19	$X=43.023 $Y=5.4885
C28887	I2/avC8#147	gnd!	1.36448e-18	$X=43.0805 $Y=5.601
C28888	I1/I198/avC10#2	gnd!	2.04097e-19	$X=43.069 $Y=16.126
C28889	CLK#534	gnd!	1.09354e-18	$X=40.967 $Y=15.6515
C28890	I3/I392/avC10#13	gnd!	1.1047e-18	$X=43.544 $Y=3.7765
C28891	I0/I15/avC10#13	gnd!	7.4631e-19	$X=43.925 $Y=22.306
C28892	I3/avC16#2	gnd!	3.9754e-18	$X=42.034 $Y=0.2535
C28893	I3/avC16#5	gnd!	3.5784e-18	$X=42.3075 $Y=-0.667
C28894	I3/avC16#7	gnd!	2.14741e-18	$X=42.22 $Y=-1.0405
C28895	I2/avC15#6	gnd!	3.48899e-18	$X=44.2625 $Y=9.9665
C28896	I2/avC15#8	gnd!	1.7161e-19	$X=43.6455 $Y=9.658
C28897	I2/avC15#12	gnd!	1.1149e-18	$X=44.067 $Y=8.7535
C28898	I2/I335/I0/avC7#2	gnd!	5.8423e-19	$X=43.1465 $Y=5.794
C28899	I2/I335/I0/avC7#7	gnd!	3.19405e-18	$X=43.138 $Y=5.2585
C28900	I3/avC7#145	gnd!	4.29177e-18	$X=40.988 $Y=3.193
C28901	I1/avC16#5	gnd!	2.19788e-18	$X=44.455 $Y=16.0685
C28902	I1/avC16#9	gnd!	1.11454e-18	$X=44.1195 $Y=14.5815
C28903	I0/avC6#67	gnd!	8.49511e-19	$X=41.335 $Y=20.073
C28904	I2/avC9#75	gnd!	7.07148e-19	$X=44.222 $Y=9.409
C28905	I2/avC9#79	gnd!	1.0767e-18	$X=44.5425 $Y=8.8665
C28906	I3/I392/I0/avC8#6	gnd!	4.51441e-18	$X=44.652 $Y=3.803
C28907	Set#249	gnd!	1.71388e-18	$X=44.498 $Y=15.524
C28908	I1/avC6#58	gnd!	1.14412e-18	$X=44.2765 $Y=12.1475
C28909	I2/I335/I0/avC8#6	gnd!	4.76194e-18	$X=43.7085 $Y=5.266
C28910	I0/I15/I0/avC8#6	gnd!	1.94726e-18	$X=45.03 $Y=22.189
C28911	I3/I398/avC6#2	gnd!	1.19103e-18	$X=45.266 $Y=-0.8355
C28912	I3/I398/avC6#4	gnd!	8.42123e-19	$X=44.8375 $Y=0.062
C28913	I3/I398/avC6#6	gnd!	9.30923e-18	$X=43.9415 $Y=0.4365
C28914	I2/I335/avC10#7	gnd!	2.52702e-18	$X=45.2855 $Y=5.2035
C28915	avC11#44	gnd!	1.01439e-18	$X=45.509 $Y=12.1345
C28916	Set#257	gnd!	1.50399e-18	$X=44.401 $Y=15.0995
C28917	I2/I337/avC10#13	gnd!	3.13718e-19	$X=45.4835 $Y=9.9515
C28918	I3/I392/I0/avC7#7	gnd!	3.30808e-18	$X=45.525 $Y=2.697
C28919	I3/I392/I0/avC7#9	gnd!	8.07479e-19	$X=45.3915 $Y=3.2405
C28920	I3/I392/I0/avC7#11	gnd!	5.0553e-18	$X=45.6705 $Y=3.7255
C28921	I3/I398/avC7#12	gnd!	6.60728e-18	$X=44.161 $Y=1.2775
C28922	I3/avC7#151	gnd!	1.23335e-18	$X=46.0905 $Y=3.3115
C28923	CLK#567	gnd!	8.692e-19	$X=45.9415 $Y=2.9265
C28924	I1/avC14#10	gnd!	2.26076e-18	$X=45.8025 $Y=16.0685
C28925	I1/avC14#14	gnd!	1.40445e-18	$X=45.5955 $Y=14.58
C28926	CLK#571	gnd!	1.56682e-18	$X=44.369 $Y=3.347
C28927	I2/avC8#158	gnd!	1.08087e-18	$X=42.755 $Y=8.818
C28928	I0/I15/I0/avC7#7	gnd!	1.69303e-18	$X=45.904 $Y=21.1345
C28929	I0/I15/I0/avC7#9	gnd!	2.64889e-18	$X=45.771 $Y=21.6805
C28930	I0/I15/I0/avC7#11	gnd!	2.21207e-18	$X=46.051 $Y=22.2485
C28931	I0/avC6#73	gnd!	8.74821e-18	$X=30.087 $Y=14.084
C28932	I0/avC6#80	gnd!	1.2817e-18	$X=27.7325 $Y=14.0975
C28933	I1/avC6#63	gnd!	1.34037e-18	$X=45.8385 $Y=15.5585
C28934	I3/I398/avC7#15	gnd!	7.28899e-19	$X=45.6575 $Y=0.272
C28935	CLK#612	gnd!	1.97919e-19	$X=46.4495 $Y=21.6735
C28936	I3/avC18#2	gnd!	6.1096e-19	$X=46.0905 $Y=3.241
C28937	I2/I337/I0/avC8#6	gnd!	3.04528e-18	$X=46.5765 $Y=9.93
C28938	I0/avC15#2	gnd!	3.99812e-19	$X=46.4695 $Y=21.681
C28939	I1/I200/avC10#13	gnd!	1.6577e-18	$X=47.1065 $Y=16.126
C28940	Set#273	gnd!	4.2299e-19	$X=46.7055 $Y=5.802
C28941	I3/avC18#6	gnd!	1.74368e-18	$X=47.5235 $Y=3.7665
C28942	I3/avC18#8	gnd!	3.68263e-19	$X=47.031 $Y=3.5005
C28943	I3/avC18#12	gnd!	8.68354e-20	$X=47.3055 $Y=2.593
C28944	I1/I205/avC6#2	gnd!	3.63697e-18	$X=47.5785 $Y=11.4975
C28945	I1/I205/avC6#4	gnd!	1.77495e-18	$X=47.1275 $Y=12.2725
C28946	I1/I205/avC6#6	gnd!	7.81043e-18	$X=46.224 $Y=12.6095
C28947	CLK#626	gnd!	5.23521e-19	$X=47.5785 $Y=-0.273
C28948	CLK#627	gnd!	1.84387e-19	$X=47.645 $Y=-0.1395
C28949	I3/avC7#162	gnd!	7.01903e-19	$X=47.631 $Y=-0.7075
C28950	I3/avC7#164	gnd!	7.43506e-19	$X=47.698 $Y=-0.607
C28951	I1/avC7#134	gnd!	1.55479e-18	$X=44.2335 $Y=14.4435
C28952	I2/I337/I0/avC7#7	gnd!	1.8267e-18	$X=47.455 $Y=8.841
C28953	I2/I337/I0/avC7#9	gnd!	1.56717e-19	$X=47.322 $Y=9.3855
C28954	I2/I337/I0/avC7#11	gnd!	1.82691e-18	$X=47.609 $Y=9.898
C28955	I0/avC15#6	gnd!	1.99598e-18	$X=47.9045 $Y=22.3725
C28956	I0/avC15#8	gnd!	3.77078e-19	$X=47.414 $Y=21.985
C28957	I0/avC15#12	gnd!	5.25569e-19	$X=47.6855 $Y=21.079
C28958	I3/avC8#84	gnd!	6.30359e-19	$X=47.4545 $Y=3.2595
C28959	I2/avC8#164	gnd!	7.06415e-19	$X=48.041 $Y=9.5215
C28960	I2/avC8#166	gnd!	1.78972e-19	$X=47.964 $Y=9.6455
C28961	CLK#632	gnd!	2.52998e-19	$X=47.883 $Y=9.1075
C28962	CLK#633	gnd!	4.71168e-19	$X=48.0155 $Y=9.2575
C28963	CLK#639	gnd!	3.24032e-19	$X=48.0275 $Y=18.4635
C28964	I0/avC6#126	gnd!	1.34894e-18	$X=48.0135 $Y=17.887
C28965	I0/avC6#129	gnd!	8.56478e-19	$X=48.081 $Y=18.0245
C28966	CLK#644	gnd!	1.73274e-18	$X=46.298 $Y=9.282
C28967	I1/I205/avC7#12	gnd!	4.02918e-18	$X=46.4445 $Y=13.456
C28968	I2/avC16#6	gnd!	1.00219e-18	$X=46.5555 $Y=6.414
C28969	I2/avC16#9	gnd!	3.15248e-19	$X=46.828 $Y=5.52
C28970	I2/avC16#11	gnd!	1.98842e-18	$X=46.7675 $Y=5.165
C28971	I0/avC9#53	gnd!	1.56478e-18	$X=47.834 $Y=21.713
C28972	I2/avC17#2	gnd!	3.78268e-20	$X=48.0205 $Y=9.386
C28973	I1/I200/I0/avC8#6	gnd!	1.71516e-18	$X=48.1865 $Y=16.057
C28974	CLK#657	gnd!	5.93517e-19	$X=48.55 $Y=5.9135
C28975	I2/avC8#175	gnd!	4.28059e-19	$X=48.6045 $Y=5.4885
C28976	I2/avC8#177	gnd!	1.19765e-18	$X=48.673 $Y=5.601
C28977	I1/I205/avC7#15	gnd!	7.52821e-19	$X=47.961 $Y=12.558
C28978	I3/I396/I0/avC7#2	gnd!	1.50131e-19	$X=47.716 $Y=-0.3505
C28979	I3/I391/avC10#13	gnd!	2.35039e-18	$X=48.7295 $Y=3.7765
C28980	I0/I13/I0/avC7#6	gnd!	1.23942e-19	$X=48.095 $Y=18.089
C28981	I0/I13/I0/avC7#11	gnd!	1.2119e-18	$X=48.109 $Y=17.609
C28982	I0/I14/avC10#13	gnd!	4.21348e-19	$X=49.1105 $Y=22.306
C28983	I3/avC7#170	gnd!	1.25016e-18	$X=45.7115 $Y=3.193
C28984	I1/I200/I0/avC7#7	gnd!	1.39261e-18	$X=49.07 $Y=14.9855
C28985	I1/I200/I0/avC7#9	gnd!	2.5963e-20	$X=48.937 $Y=15.5305
C28986	I1/I200/I0/avC7#11	gnd!	1.15372e-18	$X=49.2315 $Y=16.0705
C28987	I1/avC7#142	gnd!	8.82197e-19	$X=49.6735 $Y=15.732
C28988	I1/avC7#143	gnd!	7.13831e-19	$X=49.592 $Y=15.8415
C28989	CLK#672	gnd!	3.59971e-19	$X=49.5075 $Y=15.2885
C28990	CLK#674	gnd!	1.9342e-19	$X=49.6465 $Y=15.463
C28991	I3/I396/I0/avC8#6	gnd!	1.81161e-18	$X=48.2645 $Y=-0.8605
C28992	I0/avC6#132	gnd!	1.321e-18	$X=46.059 $Y=20.073
C28993	I2/I336/I0/avC7#2	gnd!	1.47478e-18	$X=48.681 $Y=5.794
C28994	I2/I336/I0/avC7#7	gnd!	4.95909e-18	$X=48.6975 $Y=5.2585
C28995	I2/I334/avC7#4	gnd!	3.34888e-19	$X=49.6355 $Y=8.7675
C28996	CLK#685	gnd!	2.91751e-19	$X=49.9695 $Y=12.259
C28997	I1/avC7#151	gnd!	6.98341e-19	$X=49.955 $Y=11.685
C28998	I1/avC7#153	gnd!	7.47262e-19	$X=50.0265 $Y=11.8105
C28999	I3/I396/avC10#7	gnd!	2.15402e-19	$X=49.877 $Y=-0.9705
C29000	I0/I13/I0/avC8#6	gnd!	2.5653e-18	$X=48.6425 $Y=17.525
C29001	I3/I391/I0/avC8#6	gnd!	2.91729e-18	$X=49.797 $Y=3.803
C29002	I1/avC18#2	gnd!	3.93841e-19	$X=49.6355 $Y=15.531
C29003	I0/I13/avC10#7	gnd!	2.06397e-19	$X=50.258 $Y=17.558
C29004	I0/I14/I0/avC8#6	gnd!	1.71516e-18	$X=50.175 $Y=22.189
C29005	CLK#695	gnd!	1.70086e-18	$X=47.6675 $Y=0.015
C29006	I2/I336/I0/avC8#6	gnd!	2.56237e-18	$X=49.227 $Y=5.266
C29007	I2/I336/avC10#7	gnd!	2.34902e-18	$X=50.8465 $Y=5.2035
C29008	I3/I391/I0/avC7#7	gnd!	2.45999e-18	$X=50.6845 $Y=2.697
C29009	I3/I391/I0/avC7#9	gnd!	9.33003e-19	$X=50.552 $Y=3.2405
C29010	I3/I391/I0/avC7#11	gnd!	5.21384e-18	$X=50.854 $Y=3.7255
C29011	I1/I199/I0/avC7#2	gnd!	2.5963e-20	$X=50.02 $Y=11.939
C29012	I1/I199/I0/avC7#7	gnd!	9.85482e-19	$X=50.0425 $Y=11.4315
C29013	CLK#706	gnd!	1.57004e-18	$X=49.3535 $Y=3.347
C29014	I1/I206/avC7#4	gnd!	1.18327e-18	$X=50.9745 $Y=14.9105
C29015	I2/I334/avC6#5	gnd!	8.3626e-18	$X=50.7305 $Y=8.708
C29016	I2/I334/avC6#7	gnd!	5.36956e-19	$X=50.043 $Y=9.047
C29017	I2/I334/avC6#9	gnd!	2.10727e-18	$X=50.286 $Y=9.83
C29018	CLK#721	gnd!	2.35688e-18	$X=48.094 $Y=6.2555
C29019	I0/I14/I0/avC7#7	gnd!	2.36636e-18	$X=51.0635 $Y=21.1345
C29020	I0/I14/I0/avC7#9	gnd!	2.5963e-20	$X=50.931 $Y=21.6805
C29021	I0/I14/I0/avC7#11	gnd!	1.67302e-19	$X=51.2345 $Y=22.2485
C29022	I0/avC6#147	gnd!	7.10171e-19	$X=51.6885 $Y=21.947
C29023	I0/avC6#149	gnd!	1.78972e-19	$X=51.603 $Y=22.0425
C29024	Set#289	gnd!	9.32672e-19	$X=51.2785 $Y=-0.347
C29025	I3/avC20#2	gnd!	6.1096e-19	$X=51.251 $Y=3.241
C29026	I0/avC6#151	gnd!	2.61035e-19	$X=50.7105 $Y=21.673
C29027	I0/avC16#3	gnd!	9.93158e-19	$X=51.3975 $Y=18.805
C29028	I0/avC16#7	gnd!	2.8959e-18	$X=51.653 $Y=17.6335
C29029	I1/I199/I0/avC8#6	gnd!	3.67969e-18	$X=50.5625 $Y=11.393
C29030	Set#296	gnd!	9.03784e-19	$X=51.658 $Y=18.106
C29031	I2/avC18#7	gnd!	1.82747e-18	$X=52.0145 $Y=6.4915
C29032	I2/avC18#11	gnd!	5.98097e-18	$X=52.243 $Y=5.2625
C29033	I2/I334/avC7#17	gnd!	1.00723e-17	$X=50.5435 $Y=7.861
C29034	I1/I199/avC10#7	gnd!	7.39953e-19	$X=52.1925 $Y=11.378
C29035	I3/avC19#2	gnd!	2.67868e-20	$X=51.1365 $Y=0.2535
C29036	I3/avC19#5	gnd!	2.19349e-19	$X=51.422 $Y=-0.6515
C29037	I3/avC19#7	gnd!	2.11235e-18	$X=51.3765 $Y=-1.0335
C29038	I3/avC20#6	gnd!	3.06664e-18	$X=52.7305 $Y=3.7665
C29039	I3/avC20#8	gnd!	5.0063e-19	$X=52.2045 $Y=3.5005
C29040	I3/avC20#12	gnd!	8.68354e-20	$X=52.4785 $Y=2.593
C29041	I1/I206/avC6#5	gnd!	3.44219e-18	$X=52.057 $Y=14.7945
C29042	I1/I206/avC6#7	gnd!	1.53623e-18	$X=51.374 $Y=15.1525
C29043	I1/I206/avC6#9	gnd!	4.16142e-18	$X=51.63 $Y=15.997
C29044	Set#315	gnd!	1.11405e-18	$X=52.244 $Y=5.802
C29045	avC8#49	gnd!	4.61825e-19	$X=51.7955 $Y=9.205
C29046	vdd!#298	gnd!	4.97418e-19	$X=52.6005 $Y=8.4265
C29047	vdd!#308	gnd!	1.53804e-18	$X=51.3825 $Y=8.4585
C29048	vdd!#316	gnd!	1.74245e-19	$X=47.89 $Y=6.61
C29049	vdd!#342	gnd!	7.66795e-19	$X=42.3365 $Y=6.61
C29050	vdd!#346	gnd!	5.96291e-19	$X=42.87 $Y=8.552
C29051	vdd!#405	gnd!	3.33082e-19	$X=32.0595 $Y=8.552
C29052	vdd!#409	gnd!	1.74592e-19	$X=30.439 $Y=6.61
C29053	vdd!#431	gnd!	3.45229e-19	$X=26.7235 $Y=8.552
C29054	vdd!#435	gnd!	4.40148e-19	$X=24.8805 $Y=6.61
C29055	vdd!#447	gnd!	6.46731e-19	$X=22.5125 $Y=6.52
C29056	vdd!#452	gnd!	7.94429e-19	$X=19.0795 $Y=6.384
C29057	vdd!#458	gnd!	1.07477e-18	$X=18.039 $Y=7.4875
C29058	vdd!#467	gnd!	7.27321e-19	$X=19.0845 $Y=8.098
C29059	vdd!#470	gnd!	4.39879e-19	$X=18.1485 $Y=8.0555
C29060	vdd!#479	gnd!	2.66665e-18	$X=14.382 $Y=8.584
C29061	CLK#740	gnd!	5.23521e-19	$X=52.774 $Y=-0.273
C29062	CLK#741	gnd!	5.6318e-19	$X=52.851 $Y=-0.1395
C29063	I3/avC7#190	gnd!	1.3384e-18	$X=52.835 $Y=-0.7075
C29064	I3/avC7#193	gnd!	1.13182e-18	$X=52.912 $Y=-0.607
C29065	vdd!#490	gnd!	6.85985e-19	$X=51.9665 $Y=20.89
C29066	vdd!#514	gnd!	1.40505e-20	$X=46.6305 $Y=19.886
C29067	vdd!#520	gnd!	3.00426e-19	$X=46.788 $Y=20.889
C29068	vdd!#574	gnd!	1.61709e-19	$X=36.432 $Y=20.889
C29069	vdd!#578	gnd!	6.23767e-21	$X=35.108 $Y=18.9475
C29070	vdd!#584	gnd!	4.98856e-19	$X=31.9875 $Y=18.995
C29071	vdd!#590	gnd!	3.78256e-19	$X=31.1955 $Y=19.0815
C29072	vdd!#613	gnd!	1.70858e-20	$X=25.997 $Y=18.9475
C29073	I3/avC8#104	gnd!	9.50109e-19	$X=52.6185 $Y=3.2595
C29074	I1/avC19#11	gnd!	1.76781e-18	$X=53.369 $Y=12.627
C29075	I1/avC19#15	gnd!	4.45841e-18	$X=53.5905 $Y=11.4455
C29076	I1/I206/avC7#17	gnd!	1.02339e-17	$X=51.8705 $Y=13.9505
C29077	I3/I389/I0/avC7#2	gnd!	5.54052e-19	$X=52.876 $Y=-0.3505
C29078	I3/I389/I0/avC7#7	gnd!	1.99233e-18	$X=52.9115 $Y=-0.9135
C29079	I3/I390/avC10#13	gnd!	1.86397e-19	$X=53.915 $Y=3.7765
C29080	Set#324	gnd!	9.99766e-19	$X=53.5845 $Y=11.9515
C29081	avC11#59	gnd!	1.12653e-18	$X=53.129 $Y=15.323
C29082	vdd!#629	gnd!	7.75697e-19	$X=53.946 $Y=14.6005
C29083	vdd!#638	gnd!	5.6591e-19	$X=52.7175 $Y=14.5845
C29084	vdd!#650	gnd!	2.1946e-19	$X=49.965 $Y=14.718
C29085	vdd!#653	gnd!	9.52469e-19	$X=46.022 $Y=12.864
C29086	vdd!#662	gnd!	3.53147e-19	$X=45.338 $Y=12.903
C29087	vdd!#699	gnd!	7.16107e-19	$X=40.123 $Y=14.718
C29088	vdd!#711	gnd!	5.15565e-19	$X=36.97 $Y=14.5845
C29089	vdd!#714	gnd!	1.55089e-18	$X=36.2165 $Y=14.6
C29090	vdd!#718	gnd!	1.70145e-19	$X=35.676 $Y=14.718
C29091	vdd!#728	gnd!	4.29251e-19	$X=32.7065 $Y=12.7765
C29092	vdd!#744	gnd!	7.53125e-20	$X=30.498 $Y=14.718
C29093	vdd!#761	gnd!	9.12309e-19	$X=26.2195 $Y=12.7765
C29094	vdd!#776	gnd!	4.68065e-19	$X=24.184 $Y=14.582
C29095	vdd!#779	gnd!	1.32783e-19	$X=22.6505 $Y=14.807
C29096	vdd!#782	gnd!	1.5161e-18	$X=19.0795 $Y=12.4115
C29097	I3/avC7#201	gnd!	1.22428e-18	$X=50.4355 $Y=3.193
C29098	I3/I389/I0/avC8#6	gnd!	2.06398e-18	$X=53.41 $Y=-0.8605
C29099	I3/I389/avC10#7	gnd!	2.06397e-19	$X=55.062 $Y=-0.9705
C29100	I3/I390/I0/avC8#6	gnd!	2.2213e-18	$X=54.942 $Y=3.803
C29101	CLK#754	gnd!	1.21832e-18	$X=52.7145 $Y=0.015
C29102	I3/I390/I0/avC7#7	gnd!	2.38538e-18	$X=55.844 $Y=2.697
C29103	I3/I390/I0/avC7#9	gnd!	2.5963e-20	$X=55.7125 $Y=3.2405
C29104	I3/I390/I0/avC7#11	gnd!	2.57021e-19	$X=56.0375 $Y=3.7255
C29105	CLK#761	gnd!	7.78351e-19	$X=54.3455 $Y=3.347
C29106	I3/avC7#215	gnd!	1.14694e-18	$X=56.5205 $Y=3.3115
C29107	CLK#766	gnd!	2.62425e-19	$X=56.3225 $Y=2.9265
C29108	I3/avC10#2	gnd!	1.54151e-18	$X=56.2215 $Y=0.311
C29109	I3/avC10#7	gnd!	1.66625e-18	$X=56.464 $Y=-0.92
C29110	vdd!#846	gnd!	1.8684e-19	$X=52.0995 $Y=0.444
C29111	vdd!#859	gnd!	4.3909e-19	$X=51.5855 $Y=2.386
C29112	vdd!#872	gnd!	7.04303e-19	$X=46.9215 $Y=0.444
C29113	vdd!#878	gnd!	1.8847e-18	$X=43.7245 $Y=0.6115
C29114	vdd!#882	gnd!	4.14367e-19	$X=46.4075 $Y=2.386
C29115	vdd!#891	gnd!	1.07016e-19	$X=43.023 $Y=0.556
C29116	vdd!#904	gnd!	3.16034e-19	$X=41.2295 $Y=2.386
C29117	vdd!#917	gnd!	7.19829e-19	$X=37.8105 $Y=0.444
C29118	vdd!#933	gnd!	4.25008e-19	$X=36.0515 $Y=2.386
C29119	vdd!#967	gnd!	4.3909e-19	$X=30.8735 $Y=2.386
C29120	vdd!#990	gnd!	4.14367e-19	$X=25.6955 $Y=2.386
C29121	vdd!#1001	gnd!	4.57971e-19	$X=19.5235 $Y=1.4305
C29122	vdd!#1003	gnd!	4.27249e-20	$X=17.6635 $Y=1.4945
C29123	vdd!#1009	gnd!	4.37566e-19	$X=19.0845 $Y=2.0645
C29124	Set#333	gnd!	5.68963e-19	$X=56.4425 $Y=-0.347
C29125	I3/avC10#14	gnd!	1.93812e-21	$X=56.411 $Y=3.241
C29126	vdd!#1019	gnd!	6.21115e-18	$X=22.9885 $Y=7.827
*
*
.ENDS testbench_av_extracted
*
