*
*
*
*                       LINUX           Mon May 10 13:01:55 2021
*
*
*
*  PROGRAM  advgen
*
*  Name           : advgen - Quantus - (64-bit)
*  Version        : 20.1.2-p025
*  Build Date     : Thu Sep 3 13:54:09 PDT 2020
*
*  HSPICE LIBRARY
*
*!LENGTH_UNITS METERS
*
*
*

*
.SUBCKT Final_MUX_1 vdd gnd in1 in2 s out
*
*
*  caps2d version: 10
*
*
*       TRANSISTOR CARDS
*
*
MavD1_17	avC8	in2#2	gnd#39	gnd#38	nmos1v#20ivpcell#20gpdk090
+ L=1e-07	W=5.1e-07
+ AD=9.384e-14	AS=9.384e-14	PD=9.8e-07	PS=9.8e-07
+ M=5	simW=5.1e-07 fw=5.1e-07
MavD1_1	out#5	avC9#37	gnd	gnd#38	nmos1v#20ivpcell#20gpdk090
+ L=1e-07	W=6e-07
+ AD=9.6e-14	AS=1.2e-13	PD=9.2e-07	PS=1.2e-06
+ M=6	simW=6e-07 fw=6e-07
MavD1_8	avC9#13	s#52	avC7#23	gnd#38
+ nmos1v#20ivpcell#20gpdk090	L=1e-07	W=5.1e-07
+ AD=9.384e-14	AS=9.384e-14	PD=9.8e-07	PS=9.8e-07	M=5	simW=5.1e-07 fw=5.1e-07
MavD1_7	avC9	avC11#29	avC8#21	gnd#38
+ nmos1v#20ivpcell#20gpdk090	L=1e-07	W=5.1e-07
+ AD=9.384e-14	AS=9.384e-14	PD=9.8e-07	PS=9.8e-07	M=5	simW=5.1e-07 fw=5.1e-07
MavD1_27	gnd#42	s#9	avC11	gnd#38	nmos1v#20ivpcell#20gpdk090
+ L=1e-07	W=5.8e-07
+ AD=1.16e-13	AS=9.28e-14	PD=1.17333e-06	PS=9e-07
+ M=6	simW=5.8e-07 fw=5.8e-07
MavD1_28	gnd	s#3	avC10	gnd#38	nmos1v#20ivpcell#20gpdk090
+ L=1e-07	W=5.8e-07
+ AD=1.16e-13	AS=9.28e-14	PD=1.17333e-06	PS=9e-07
+ M=6	simW=5.8e-07 fw=5.8e-07
MavD1_18	avC7	in1#2	gnd	gnd#38	nmos1v#20ivpcell#20gpdk090
+ L=1e-07	W=5.1e-07
+ AD=9.384e-14	AS=9.384e-14	PD=9.8e-07	PS=9.8e-07
+ M=5	simW=5.1e-07 fw=5.1e-07
MavD7_7	avC9#5	s#45	avC8#27	vdd#4	pmos1v#20ivpcell#20gpdk090
+ L=1e-07	W=6.35e-07
+ AD=1.016e-13	AS=1.397e-13	PD=9.55e-07	PS=1.3925e-06
+ M=4	simW=6.35e-07 fw=6.35e-07
MavD7_24	avC10#5	s#36	vdd	vdd#4
+ pmos1v#20ivpcell#20gpdk090	L=1e-07	W=1.045e-06
+ AD=1.9228e-13	AS=1.9228e-13	PD=1.622e-06	PS=1.622e-06	M=5	simW=1.045e-06 fw=1.045e-06
MavD7_16	avC7#5	in1#9	vdd	vdd#4	pmos1v#20ivpcell#20gpdk090
+ L=1e-07	W=9.55e-07
+ AD=1.528e-13	AS=2.101e-13	PD=1.275e-06	PS=1.8725e-06
+ M=4	simW=9.55e-07 fw=9.55e-07
MavD7_15	avC8#5	in2#8	vdd	vdd#4	pmos1v#20ivpcell#20gpdk090
+ L=1e-07	W=9.55e-07
+ AD=1.528e-13	AS=2.101e-13	PD=1.275e-06	PS=1.8725e-06
+ M=4	simW=9.55e-07 fw=9.55e-07
MavD7_1	out#1	avC9#37	vdd	vdd#4	pmos1v#20ivpcell#20gpdk090
+ L=1e-07	W=9e-07
+ AD=1.44e-13	AS=1.8e-13	PD=1.22e-06	PS=1.6e-06
+ M=6	simW=9e-07 fw=9e-07
MavD7_23	avC11	s#18	vdd	vdd#4	pmos1v#20ivpcell#20gpdk090
+ L=1e-07	W=1.045e-06
+ AD=1.9228e-13	AS=1.9228e-13	PD=1.622e-06	PS=1.622e-06
+ M=5	simW=1.045e-06 fw=1.045e-06
MavD7_8	avC9#38	avC10#31	avC7#27	vdd#4
+ pmos1v#20ivpcell#20gpdk090	L=1e-07	W=6.35e-07
+ AD=1.016e-13	AS=1.397e-13	PD=9.55e-07	PS=1.3925e-06	M=4	simW=6.35e-07 fw=6.35e-07
*
*
*       RESISTOR AND CAP/DIODE CARDS
*
Rf1	s#55	s#5	    3.8184	$mt4	$X=1.0725 $Y=4.595
Rf3	s#56	s#6	    3.8223	$mt4	$X=1.815 $Y=1.11
Rf4	avC11#32	avC11#28	    1.8376	$mt4
+ $X=1.3725 $Y=4.97
Rf2	avC10#37	avC10#29	    1.7889	$mt4
+ $X=1.49 $Y=2.6225
Rg1	gnd#2	gnd#3	    1.7760	$mt3	$X=-2.94 $Y=3.0405
Rg5	s#5	s#6	    1.5228	$mt3	$X=-1.685 $Y=2.975
Rg11	s#55	s#47	    0.3500	$mt3	$X=3.94 $Y=4.6
Rg13	s#56	s#54	    0.3500	$mt3	$X=4.15 $Y=1.11
Rg17	out#1	out#5	    3.1340	$mt3	$X=5.92 $Y=1.238
Rg18	out#1	out#30	    1.5660	$mt3	$X=7.6 $Y=1.448
Rg19	out#5	out#30	    1.5700	$mt3	$X=7.6 $Y=1.028
Rg7	avC11#28	avC11#27	    1.4000	$mt3
+ $X=-0.425 $Y=4.97
Rg14	avC11#32	avC11#31	    0.2333	$mt3	$X=3.93 $Y=4.97
Rg3	avC10#9	avC10	    3.1420	$mt3	$X=-2.36 $Y=1.223
Rg8	avC10#29	avC10#28	    1.4000	$mt3
+ $X=-0.41 $Y=2.62
Rg12	avC10#37	avC10#32	    0.3500	$mt3	$X=3.94 $Y=2.62
Rg15	avC9#36	avC9#35	    2.1986	$mt3	$X=5.23 $Y=4.72
Rg16	avC9#35	avC9#34	    1.0729	$mt3	$X=5.23 $Y=2.52
Rg10	avC8#25	avC8#26	    3.2283	$mt3
+ $X=2.665 $Y=4.7825
Rg9	avC7	avC7#17	    3.2040	$mt3	$X=2.345 $Y=1.3005
Rh1	gnd#1	gnd#2	    2.8000	$mt2	$X=-2.94 $Y=6
Rh2	gnd#4	gnd#3	    2.8000	$mt2	$X=-2.94 $Y=0.08
Rh3	s#2	s#5	    1.4000	$mt2	$X=-1.685 $Y=4.795
Rh4	s#4	s#6	    1.4000	$mt2	$X=-1.685 $Y=1.155
Rh19	s#46	s#47	    0.3500	$mt2	$X=3.94 $Y=4.6
Rh37	s#53	s#54	    0.3500	$mt2	$X=4.15 $Y=1.11
Rh66	out#29	out#30	    2.9924	$mt2	$X=7.8325 $Y=1.235
Rh16	avC11	avC11#27	    2.8000	$mt2	$X=-0.425 $Y=4.97
Rh38	avC11#30	avC11#31	    0.2333	$mt2	$X=3.93 $Y=4.97
Rh15	avC10#5	avC10#9	7.930e-02	$mt2
+ $X=-2.2595 $Y=1.6525
Rh17	avC10#23	avC10#28	    2.8000	$mt2
+ $X=-0.41 $Y=2.62
Rh20	avC10#30	avC10#32	    0.3500	$mt2	$X=3.94 $Y=2.62
Rh18	avC9#21	avC9#22	    3.1303	$mt2	$X=3.94 $Y=2.3
Rh52	avC9#33	avC9#34	    2.8000	$mt2	$X=5.23 $Y=1.26
Rh53	avC9#5	avC9#35	    1.7564	$mt2	$X=4.795 $Y=3.7825
Rh55	avC9	avC9#36	1.000e-01	$mt2	$X=5.105 $Y=5.66
Rh23	avC8#21	avC8#25	8.753e-02	$mt2
+ $X=2.7705 $Y=5.2925
Rh24	avC8	avC8#25	    0.1200	$mt2	$X=2.5105 $Y=5.29
Rh41	avC8#27	avC8#26	    0.1815	$mt2
+ $X=2.88 $Y=4.275
Rh42	avC8#5	avC8#26	    0.3872	$mt2	$X=2.2 $Y=4.275
Rh33	avC7#23	avC7	    0.2160	$mt2	$X=2.62 $Y=0.79
Rh45	avC7#5	avC7#17	    0.2522	$mt2	$X=2.0425 $Y=1.805
Rh46	avC7#27	avC7#17	    0.3165	$mt2
+ $X=2.7225 $Y=1.805
Ri225	gnd#4	gnd	    1.2452	$mt1	$X=-0.4495 $Y=0.08
Ri253	gnd#39	gnd#38	    3.6576	$mt1	$X=4.26 $Y=6
Ri256	gnd#42	gnd#39	    0.2560	$mt1	$X=0 $Y=6
Ri260	gnd#42	gnd#1	7.800e-02	$mt1	$X=-2.85 $Y=6
Ri171	vdd#5	vdd	    0.3000	$mt1	$X=5.4495 $Y=3.11
Ri203	vdd#5	vdd#4	    1.5000	$mt1	$X=7.4 $Y=3.14
Ri55	in1#1	in1	   10.0000	$mt1	$X=1.205 $Y=1.295
Ri54	in2#1	in2	   10.0000	$mt1	$X=1.205 $Y=4.785
Ri14	s#2	s	    1.4112	$mt1	$X=-1.685 $Y=4.82
Ri15	s#4	s#3	   11.4000	$mt1	$X=-1.685 $Y=1.155
Ri113	s#46	s#45	    2.3515	$mt1	$X=3.94 $Y=4.6075
Ri121	s#53	s#52	    2.3500	$mt1	$X=4.15 $Y=1.11
Ri168	out#29	out	5.926e-03	$mt1	$X=8.065 $Y=1.235
Ri122	avC11#30	avC11#29	    1.9000	$mt1	$X=3.93 $Y=4.97
Ri38	avC10#5	avC10#23	    0.1577	$mt1
+ $X=-0.44 $Y=2.1375
Ri114	avC10#30	avC10#31	    2.3500	$mt1	$X=3.94 $Y=2.62
Ri147	avC9#33	avC9#37	    5.9906	$mt1	$X=5.93 $Y=1.26
Ri148	avC9#38	avC9#33	    0.5827	$mt1	$X=4.76 $Y=1.43
Ri151	avC9#38	avC9#21	    0.1053	$mt1
+ $X=4.36 $Y=2.0525
Ri153	avC9#38	avC9#13	    0.6583	$mt1	$X=3.41 $Y=1.43
Ri158	avC9#38	avC9#22	    0.1053	$mt1
+ $X=3.52 $Y=2.0525
Rj57	in1#2	in1#1	    6.4320	$poly	$X=1.2325 $Y=1.1695
Rj58	in1#1	in1#9	    6.7923	$poly	$X=1.2325 $Y=1.4225
Rj42	in2#2	in2#1	    6.4320	$poly	$X=1.2325 $Y=4.9105
Rj43	in2#1	in2#8	    6.7923	$poly	$X=1.2325 $Y=4.6575
Rj8	s#9	s#17	    2.7257	$poly	$X=-1.685 $Y=4.99
Rj9	s#17	s#18	    2.6094	$poly	$X=-1.685 $Y=4.775
Rj19	s	s#17	   10.0000	$poly	$X=-1.685 $Y=4.855
Rj28	s#3	s#36	    4.3539	$poly	$X=-1.685 $Y=1.305
*
*       CAPACITOR CARDS
*
*
C1	avC10#29	s#55	4.20983e-18	$X=1.171 $Y=3.3245
C2	out#29	gnd#38	3.02642e-18	$X=8.064 $Y=1.2345
C3	out#30	gnd#38	2.22384e-18	$X=7.599 $Y=1.2385
C4	avC8#25	avC11#30	4.7599e-18	$X=2.899 $Y=5.1505
C5	s#56	avC10#29	4.45943e-18	$X=1.2015 $Y=2.0945
C6	s#55	avC11#32	2.14622e-16	$X=3.581 $Y=4.814
C7	out#30	vdd#4	3.85829e-18	$X=7.59 $Y=1.245
C8	out#29	vdd#4	1.12626e-17	$X=8.0585 $Y=1.2375
C9	avC7#17	in1	1.54956e-18	$X=1.5255 $Y=1.4315
C10	avC10#37	s#55	3.74448e-17	$X=2.672 $Y=3.4055
C11	avC8#26	s#46	3.18422e-18	$X=3.277 $Y=4.4795
C12	avC11#27	in2	2.60546e-18	$X=0.4175 $Y=4.8595
C13	avC8#26	in2	1.11431e-18	$X=1.62 $Y=4.646
C14	avC8#25	in2	9.2047e-19	$X=1.733 $Y=4.9175
C15	s#56	avC10#37	4.71665e-17	$X=2.7275 $Y=2.0345
C16	s#46	avC11#30	8.47601e-17	$X=3.9365 $Y=4.7015
C17	avC11#28	in2	2.97022e-18	$X=1.067 $Y=4.802
C18	in1	gnd#38	2.49036e-18	$X=1.2045 $Y=1.322
C19	in1	vdd#4	5.11135e-18	$X=1.2135 $Y=1.326
C20	gnd#3	vdd#4	4.9761e-17	$X=-2.785 $Y=1.5255
C21	avC11#31	s#46	1.01391e-17	$X=3.935 $Y=4.7595
C22	in2	gnd#38	2.01641e-18	$X=1.2045 $Y=4.757
C23	in2	vdd#4	1.01784e-17	$X=1.2135 $Y=4.7525
C24	gnd#2	vdd#4	4.83761e-17	$X=-2.7655 $Y=5.2435
C25	avC9#22	avC10#32	5.0287e-17	$X=3.736 $Y=2.2955
C26	out	gnd#38	1.07185e-17	$X=8.064 $Y=1.2345
C27	out	vdd#4	1.5214e-17	$X=8.0575 $Y=1.2385
C28	avC10#9	vdd#4	3.6193e-18	$X=-2.347 $Y=1.5805
C29	avC9#36	avC11#30	4.99428e-18	$X=4.8885 $Y=5.3285
C30	avC10#37	avC7#17	1.05449e-17	$X=2.3595 $Y=1.982
C31	avC10#37	avC8#26	5.81675e-18	$X=2.583 $Y=3.8545
C32	avC11#32	avC8#25	1.63361e-17	$X=2.915 $Y=5.1475
C33	s#56	avC7#17	2.33544e-18	$X=2.5365 $Y=1.583
C34	s#55	avC8#26	2.18518e-17	$X=2.7545 $Y=4.4175
C35	avC9#21	avC10#32	5.01532e-17	$X=4.1425 $Y=2.2955
C36	s#55	avC11#31	8.95114e-17	$X=3.6965 $Y=4.8655
C37	avC11#27	gnd#38	7.59495e-18	$X=-0.425 $Y=4.9695
C38	gnd#3	avC10#9	2.88862e-17	$X=-2.466 $Y=1.562
C39	avC10#32	s#55	1.19043e-17	$X=3.6255 $Y=3.3535
C40	s#56	avC10#32	1.73601e-17	$X=3.69 $Y=2.0715
C41	avC10#28	vdd#4	4.38995e-18	$X=-0.396 $Y=2.6205
C42	s#56	avC9#33	4.72636e-18	$X=4.6825 $Y=1.2465
C43	avC10#37	avC9#35	5.34556e-18	$X=3.8385 $Y=3.2
C44	avC11#28	gnd#38	3.95851e-17	$X=0.5605 $Y=4.9695
C45	avC11#32	avC9#36	7.03061e-18	$X=4.8685 $Y=5.321
C46	s#56	avC9#34	9.95535e-18	$X=4.8025 $Y=1.67
C47	s#55	avC9#35	1.03068e-17	$X=4.3645 $Y=4.026
C48	avC7#17	vdd#4	1.4103e-17	$X=2.3605 $Y=1.7195
C49	avC10#29	vdd#4	4.54916e-18	$X=0.1665 $Y=2.626
C50	avC8#26	vdd#4	1.98101e-17	$X=2.676 $Y=4.3605
C51	avC11#32	gnd#38	3.35604e-17	$X=3.9295 $Y=4.9695
C52	avC8#25	gnd#38	1.22749e-17	$X=2.647 $Y=5.195
C53	avC8#25	vdd#4	2.79336e-18	$X=2.6565 $Y=5.186
C54	avC10#37	vdd#4	4.49898e-18	$X=2.4325 $Y=2.6285
C55	s#55	vdd#4	1.2591e-17	$X=3.1355 $Y=4.564
C56	s#56	gnd#38	1.34162e-17	$X=3.2525 $Y=1.111
C57	avC9#33	gnd#38	1.21996e-17	$X=5.214 $Y=1.2985
C58	avC9#33	vdd#4	3.49782e-17	$X=5.2125 $Y=1.313
C59	avC9#34	vdd#4	6.67327e-18	$X=5.228 $Y=1.832
C60	avC9#35	vdd#4	7.37073e-17	$X=5.0875 $Y=3.693
C61	avC8#25	avC11#31	1.09702e-17	$X=3.068 $Y=5.1205
C62	avC9#36	gnd#38	5.26406e-17	$X=5.2305 $Y=5.457
C63	avC9#36	vdd#4	7.76158e-18	$X=5.2295 $Y=5.4425
C64	s#55	avC11#30	1.01391e-17	$X=3.565 $Y=4.807
C65	s#53	avC9#33	2.01047e-17	$X=4.79 $Y=1.2225
C66	avC11#30	gnd#38	7.79358e-18	$X=3.9295 $Y=4.9695
C67	s#55	avC11#28	1.1317e-17	$X=1.2885 $Y=4.862
C68	avC11#31	avC9#36	1.02714e-17	$X=4.689 $Y=5.254
C69	avC10#32	avC9#35	9.53709e-18	$X=4.524 $Y=3.17
C70	avC8#27	s#45	1.00945e-16	$X=3.939 $Y=4.153
C71	in1	vdd	6.04499e-18	$X=1.2045 $Y=1.323
C72	vdd	in2	6.03921e-18	$X=1.2045 $Y=4.7555
C73	s	vdd	8.08654e-18	$X=-1.6815 $Y=4.852
C74	out	vdd	1.29651e-17	$X=8.06 $Y=1.2355
C75	avC11#32	avC9	5.48456e-18	$X=3.964 $Y=5.067
C76	avC9#5	avC10#31	3.51529e-18	$X=3.9705 $Y=3.398
C77	s#9	gnd#38	1.44259e-16	$X=-1.4875 $Y=5.36
C78	avC10#9	s#36	4.07731e-18	$X=-2.356 $Y=1.58
C79	in1#2	vdd#4	1.79347e-17	$X=1.657 $Y=1.0125
C80	gnd#39	avC11#29	3.39865e-17	$X=2.742 $Y=5.534
C81	avC10#32	avC9#5	2.08903e-17	$X=3.951 $Y=2.9595
C82	avC10#29	avC11	6.09615e-18	$X=0.0605 $Y=2.6825
C83	in1#9	vdd#4	1.02276e-16	$X=1.627 $Y=2.0645
C84	avC9#5	avC8#27	2.05955e-16	$X=3.969 $Y=3.995
C85	avC7#27	s#52	8.15709e-18	$X=3.9345 $Y=1.3865
C86	vdd	s#9	8.25046e-18	$X=-1.3845 $Y=5.2665
C87	avC11	avC8#5	6.45085e-18	$X=1.0025 $Y=4.098
C88	s#3	in1#2	4.12301e-18	$X=-0.1485 $Y=0.7635
C89	avC8#27	in2#8	2.18821e-18	$X=2.693 $Y=4.109
C90	vdd	in1#2	7.01206e-18	$X=1.3035 $Y=0.852
C91	vdd	in2#2	6.95033e-18	$X=1.3035 $Y=5.211
C92	in2#2	gnd#38	1.21949e-16	$X=1.297 $Y=5.291
C93	avC11#32	avC8	7.77976e-18	$X=3.4685 $Y=5.053
C94	gnd#3	vdd	1.89944e-17	$X=-2.9125 $Y=1.502
C95	gnd#2	vdd	1.89604e-17	$X=-2.909 $Y=5.275
C96	avC10#9	vdd	1.14402e-17	$X=-2.3705 $Y=1.576
C97	s#55	avC8#27	1.74914e-17	$X=3.285 $Y=4.4885
C98	s#6	vdd	3.15391e-17	$X=-1.414 $Y=1.4565
C99	s#5	vdd	4.66162e-17	$X=-1.4115 $Y=4.2965
C100	avC11#30	gnd#39	6.00959e-18	$X=3.619 $Y=5.048
C101	avC10#28	vdd	2.2991e-17	$X=-0.4085 $Y=2.6195
C102	avC11	avC8	3.37772e-18	$X=1.128 $Y=5.313
C103	avC7#17	vdd	1.97278e-17	$X=2.343 $Y=1.713
C104	avC10#29	avC7#5	1.28155e-17	$X=0.3395 $Y=2.5135
C105	avC9#5	vdd#4	4.71771e-18	$X=4.0215 $Y=3.9035
C106	avC8#26	vdd	1.84728e-17	$X=2.66 $Y=4.3655
C107	avC7	in1#2	8.25965e-17	$X=1.4415 $Y=0.74
C108	avC9#36	avC8#21	1.06982e-17	$X=5.097 $Y=5.4525
C109	avC10#32	vdd	1.91178e-17	$X=3.93 $Y=2.62
C110	avC9#34	vdd	5.4985e-18	$X=5.2225 $Y=1.826
C111	avC9#38	s#52	2.37138e-17	$X=3.937 $Y=1.4965
C112	avC9#35	vdd	4.22485e-17	$X=5.075 $Y=3.6975
C113	avC8#27	avC11#30	3.26379e-17	$X=3.931 $Y=4.812
C114	gnd#39	in2#2	1.25076e-16	$X=1.266 $Y=5.4515
C115	vdd	s#3	7.61814e-18	$X=-1.3765 $Y=0.8025
C116	in2#2	vdd#4	1.82423e-17	$X=1.6505 $Y=5.0775
C117	avC10#31	vdd	1.25817e-16	$X=3.8815 $Y=2.2205
C118	vdd	s#45	2.61022e-17	$X=3.8805 $Y=4.1565
C119	s#56	avC9#13	2.18991e-17	$X=3.464 $Y=0.9705
C120	vdd	avC9#37	1.81433e-16	$X=5.9445 $Y=1.525
C121	avC9#5	s#45	8.26297e-17	$X=3.9705 $Y=4.013
C122	avC11#29	gnd#38	1.44124e-16	$X=3.93 $Y=5.441
C123	avC10#29	vdd	1.84962e-17	$X=0.1125 $Y=2.621
C124	avC11#27	gnd#42	5.33609e-18	$X=-0.4405 $Y=4.979
C125	avC10#37	vdd	3.25572e-18	$X=2.3915 $Y=2.6225
C126	gnd#2	avC11	6.14291e-17	$X=-2.865 $Y=5.2645
C127	s#56	avC7#27	2.29476e-17	$X=3.409 $Y=1.303
C128	s#4	vdd	4.93206e-18	$X=-1.683 $Y=1.1555
C129	avC9#13	gnd#38	3.07128e-17	$X=4.106 $Y=0.5555
C130	s#53	avC9#38	8.95943e-17	$X=4.0895 $Y=1.2975
C131	vdd	avC8	5.63015e-18	$X=1.5495 $Y=5.35
C132	avC9	avC11#30	2.89006e-17	$X=3.966 $Y=5.0735
C133	avC10#29	avC8#5	4.62154e-18	$X=0.337 $Y=2.8845
C134	avC7	in1#9	4.65655e-18	$X=1.4495 $Y=1.298
C135	s#6	avC10#29	4.20931e-17	$X=-0.365 $Y=2.2615
C136	avC9#38	vdd#4	2.01544e-17	$X=3.973 $Y=1.812
C137	out#30	avC9#37	1.24188e-17	$X=7.5945 $Y=1.2385
C138	avC9#21	avC10#31	5.25753e-17	$X=4.216 $Y=2.151
C139	avC11#29	vdd#4	2.12261e-17	$X=4.0315 $Y=5.218
C140	s#5	avC11#28	1.16752e-16	$X=0.043 $Y=4.798
C141	s#6	in1	1.29985e-18	$X=0.993 $Y=1.3315
C142	avC9#33	vdd	1.35051e-17	$X=5.205 $Y=1.3015
C143	avC10#28	avC11	2.41835e-18	$X=-0.417 $Y=2.6325
C144	avC7	gnd#38	2.34905e-17	$X=1.543 $Y=0.714
C145	out#29	vdd	4.37794e-18	$X=8.0605 $Y=1.235
C146	avC10#5	vdd	3.04945e-16	$X=-1.25 $Y=1.9765
C147	avC8#5	in2#8	9.12633e-17	$X=1.329 $Y=4.047
C148	avC7#5	vdd	2.08408e-16	$X=1.324 $Y=2.076
C149	avC10	avC7	4.39488e-18	$X=0.0045 $Y=0.6955
C150	gnd#42	in2#2	2.05749e-18	$X=0.2695 $Y=5.428
C151	vdd	avC8#5	2.1828e-16	$X=1.324 $Y=3.994
C152	s#56	avC7#23	3.30321e-17	$X=3.3495 $Y=1.016
C153	avC10#5	s#36	1.21092e-16	$X=-1.408 $Y=1.8955
C154	avC9#34	avC7#27	1.29309e-17	$X=5.132 $Y=1.8345
C155	s#55	avC9#5	1.10637e-17	$X=3.4245 $Y=4.3505
C156	avC7#27	vdd	5.13027e-17	$X=3.885 $Y=1.978
C157	gnd#3	s#6	2.59227e-17	$X=-2.318 $Y=1.4735
C158	vdd	avC8#27	3.59379e-17	$X=3.886 $Y=4.0885
C159	avC9#5	vdd	4.15426e-17	$X=3.9575 $Y=3.9215
C160	avC10#29	s#5	2.68159e-17	$X=-0.393 $Y=3.1675
C161	out#1	vdd	2.99812e-16	$X=6.598 $Y=1.8665
C162	s#55	avC8	2.69651e-18	$X=2.705 $Y=4.799
C163	avC7	s#52	2.29555e-18	$X=2.5435 $Y=0.6875
C164	avC9#13	s#52	7.55477e-17	$X=4.033 $Y=0.5945
C165	avC11	vdd	3.08663e-16	$X=-1.132 $Y=4.543
C166	avC10#5	avC7#5	6.19467e-18	$X=0.4725 $Y=2.0275
C167	vdd	avC7	6.89072e-18	$X=1.542 $Y=0.754
C168	avC8#21	gnd#39	3.03603e-17	$X=2.889 $Y=5.489
C169	avC7#23	gnd#38	1.04757e-17	$X=3.7 $Y=0.6875
C170	in2#2	avC11#29	3.1707e-18	$X=2.6255 $Y=5.3655
C171	avC11	s#18	1.42839e-16	$X=-1.4935 $Y=4.348
C172	avC8#27	avC9	6.86684e-18	$X=4.0355 $Y=4.821
C173	avC11#32	avC8#5	2.02137e-18	$X=3.323 $Y=4.747
C174	out#5	vdd	3.22888e-18	$X=6.6295 $Y=0.7665
C175	avC10#31	vdd#4	1.32169e-16	$X=4.0225 $Y=2.2735
C176	avC11#31	avC9	1.34148e-17	$X=3.9495 $Y=5.0265
C177	s#6	in1#2	4.28571e-18	$X=-0.878 $Y=1.3095
C178	in1#2	s#52	4.53668e-18	$X=2.6665 $Y=0.72
C179	avC8	in2#8	4.46449e-18	$X=1.457 $Y=4.8205
C180	avC10#37	avC7#5	8.21448e-18	$X=2.158 $Y=2.499
C181	gnd#2	s#5	2.70459e-17	$X=-2.2375 $Y=4.8325
C182	avC8	avC11#29	2.4695e-18	$X=2.4745 $Y=5.4165
C183	s#36	gnd#38	3.09426e-17	$X=-1.4855 $Y=1.8265
C184	avC8#25	gnd#39	9.53559e-18	$X=2.603 $Y=5.209
C185	s#45	avC11#30	1.01397e-16	$X=3.931 $Y=4.839
C186	in2	gnd#39	5.92162e-18	$X=1.205 $Y=4.773
C187	s#6	avC7#5	4.40893e-18	$X=-0.471 $Y=1.6625
C188	s#6	avC10#9	2.28309e-17	$X=-2.2635 $Y=1.559
C189	avC10	s#3	8.36362e-17	$X=-1.545 $Y=0.7075
C190	avC10#37	avC8#5	3.89696e-18	$X=2.1605 $Y=2.925
C191	avC8	in2	3.98578e-18	$X=1.2165 $Y=4.7795
C192	s#45	vdd#4	1.21768e-16	$X=4.024 $Y=4.105
C193	avC9#35	avC8#27	3.21365e-17	$X=4.924 $Y=3.7605
C194	avC11	s#9	1.07519e-16	$X=-1.493 $Y=5.222
C195	vdd	s#18	1.62326e-16	$X=-1.3625 $Y=4.1395
C196	avC10	s#4	2.32835e-17	$X=-1.683 $Y=1.1405
C197	vdd	s#36	1.62394e-16	$X=-1.3455 $Y=1.865
C198	s#5	avC8	2.11196e-18	$X=-0.6025 $Y=4.6135
C199	avC7#27	in1#9	2.1103e-18	$X=2.684 $Y=1.968
C200	s#46	avC11#29	2.90637e-18	$X=3.9385 $Y=4.649
C201	avC11#27	in2#2	1.09604e-18	$X=-0.384 $Y=4.977
C202	out#5	avC9#33	2.24395e-17	$X=5.3585 $Y=1.243
C203	avC8	in2#2	7.92138e-17	$X=1.45 $Y=5.3585
C204	s#52	gnd#38	1.33083e-16	$X=3.93 $Y=0.665
C205	vdd	in2#8	1.18063e-16	$X=1.351 $Y=4.0675
C206	s#45	avC11#29	1.12205e-16	$X=3.9345 $Y=4.755
C207	avC7#5	in1	4.48739e-18	$X=1.2095 $Y=1.355
C208	avC8	gnd#38	1.87243e-17	$X=1.55 $Y=5.4025
C209	vdd	in1#9	1.18149e-16	$X=1.3515 $Y=1.9995
C210	out	avC9#37	1.69553e-17	$X=8.0595 $Y=1.2345
C211	avC11	in2#8	5.49588e-18	$X=0.8745 $Y=4.2095
C212	gnd#42	s#9	1.22502e-16	$X=-1.5055 $Y=5.482
C213	s#6	avC7	9.37482e-18	$X=-0.6055 $Y=1.2385
C214	s#4	avC10#5	4.18501e-18	$X=-1.6785 $Y=1.17
C215	avC7#27	avC9#13	5.38651e-18	$X=4.027 $Y=1.215
C216	avC7#23	in1#2	1.79417e-18	$X=2.657 $Y=0.727
C217	avC9#34	out#5	4.73526e-18	$X=5.3375 $Y=1.7455
C218	avC11#32	gnd#39	9.61917e-18	$X=3.6395 $Y=5.043
C219	in2#8	vdd#4	1.14494e-16	$X=1.6235 $Y=4.0225
C220	s#56	avC7	3.31164e-17	$X=2.8375 $Y=1.012
C221	s#52	vdd#4	2.98045e-17	$X=4.0275 $Y=0.878
C222	s#55	avC8#5	7.67018e-18	$X=2.566 $Y=4.423
C223	avC10#31	s#45	5.65833e-18	$X=3.9395 $Y=3.188
C224	avC8	gnd#39	2.00283e-16	$X=1.4425 $Y=5.486
C225	avC8#21	gnd#38	1.54608e-17	$X=3.696 $Y=5.4095
C226	s#5	avC8#5	4.32209e-18	$X=-0.5315 $Y=4.2115
C227	avC11#28	in2#2	2.75488e-18	$X=0.6175 $Y=4.994
C228	s#6	gnd#38	4.80982e-17	$X=-1.438 $Y=1.4465
C229	avC9	gnd#39	7.34362e-17	$X=3.046 $Y=5.593
C230	avC7	in1	4.57664e-18	$X=1.215 $Y=1.3015
C231	avC9#37	gnd#38	1.63738e-16	$X=6.738 $Y=1.3235
C232	avC7#5	in1#9	8.70377e-17	$X=1.329 $Y=2.0315
C233	s#36	vdd#4	1.29987e-16	$X=-0.562 $Y=1.9995
C234	s#56	avC7#5	6.15343e-18	$X=2.657 $Y=1.4035
C235	avC7#5	in1#2	4.53817e-18	$X=1.3105 $Y=1.651
C236	avC11#31	avC8#21	2.00416e-17	$X=3.9015 $Y=5.021
C237	avC8#5	in2	4.14081e-18	$X=1.2095 $Y=4.724
C238	s#52	avC10#31	1.68741e-17	$X=3.9345 $Y=1.4985
C239	avC9	gnd#38	6.98617e-17	$X=4.1375 $Y=5.5575
C240	avC8#27	s#46	1.03822e-16	$X=3.939 $Y=4.561
C241	avC9#22	avC10#31	5.21448e-17	$X=3.6625 $Y=2.151
C242	s#6	vdd#4	2.19792e-17	$X=-1.264 $Y=1.4895
C243	avC9#38	avC10#31	4.36985e-17	$X=3.9395 $Y=1.892
C244	avC11#32	in2#2	2.25481e-18	$X=3.586 $Y=5.011
C245	avC10#5	vdd#4	2.78991e-17	$X=-0.7095 $Y=2.0625
C246	avC9#22	avC7#27	1.03058e-16	$X=3.664 $Y=2.1335
C247	avC9#37	vdd#4	1.38894e-16	$X=6.093 $Y=1.9715
C248	gnd#39	in2#8	1.70895e-18	$X=1.3015 $Y=4.6955
C249	avC11	s#2	6.83006e-17	$X=-1.684 $Y=4.794
C250	avC7#23	avC9#13	2.68112e-16	$X=3.9195 $Y=0.61
C251	s	gnd#42	6.0413e-18	$X=-1.682 $Y=4.8705
C252	avC10#31	avC9#37	2.98374e-18	$X=4.277 $Y=2.095
C253	avC11	in2	1.57944e-18	$X=1.1885 $Y=4.757
C254	s#5	gnd#38	1.15811e-17	$X=-1.4335 $Y=4.309
C255	s#56	in1#2	3.45478e-18	$X=2.9085 $Y=1.0525
C256	out#5	gnd#38	3.12793e-17	$X=6.754 $Y=0.7205
C257	avC9	avC11#29	6.94556e-17	$X=4.047 $Y=5.506
C258	avC7	avC9#13	3.3872e-18	$X=2.8435 $Y=0.628
C259	avC9#33	avC7#27	1.61185e-17	$X=5.088 $Y=1.363
C260	s#6	avC10#28	4.85332e-18	$X=-0.498 $Y=2.5195
C261	s#5	avC11#27	1.47437e-17	$X=-0.5185 $Y=4.908
C262	avC10	gnd#38	2.28173e-17	$X=-1.598 $Y=0.6875
C263	s#3	gnd#38	1.45164e-16	$X=-1.4605 $Y=0.749
C264	s#18	gnd#38	1.53458e-17	$X=-1.487 $Y=4.204
C265	gnd#42	s#18	9.62744e-18	$X=-1.5075 $Y=4.852
C266	s#5	vdd#4	1.52696e-17	$X=-1.274 $Y=4.2775
C267	avC7#27	avC9#21	9.90465e-17	$X=4.2145 $Y=2.1335
C268	avC8#21	avC9	2.68519e-16	$X=3.893 $Y=5.475
C269	avC8#5	in2#2	5.07568e-18	$X=1.3105 $Y=4.4355
C270	s#53	avC10#31	3.00994e-18	$X=4.121 $Y=1.256
C271	avC11	in2#2	3.82592e-18	$X=0.724 $Y=5.181
C272	s#6	avC10	8.14311e-17	$X=-1.4845 $Y=1.238
C273	avC8#27	avC11#29	7.73345e-18	$X=3.9345 $Y=4.676
C274	s#6	avC10#5	6.81741e-17	$X=-1.4215 $Y=1.546
C275	avC7#27	vdd#4	2.06954e-17	$X=4.0165 $Y=2.0405
C276	avC11#32	avC8#21	1.19838e-17	$X=3.883 $Y=5.0565
C277	s#52	avC9#37	3.8824e-18	$X=4.323 $Y=0.745
C278	avC11	s	2.9068e-17	$X=-1.6835 $Y=4.8535
C279	avC11	gnd#38	3.09551e-17	$X=-1.449 $Y=4.77
C280	avC11#31	avC8#27	7.33106e-18	$X=3.93 $Y=4.8825
C281	avC7#27	avC10#31	7.06072e-17	$X=3.939 $Y=2.0775
C282	avC11	gnd#42	2.72279e-16	$X=-1.507 $Y=5.388
C283	avC9#33	out#1	2.70958e-17	$X=5.3305 $Y=1.3385
C284	avC8#21	in2#2	1.77034e-18	$X=2.7895 $Y=5.3635
C285	avC11#32	avC8#27	5.52739e-18	$X=3.931 $Y=4.822
C286	avC10	s#36	2.22675e-17	$X=-1.571 $Y=1.034
C287	s#5	gnd#42	1.04721e-17	$X=-1.4455 $Y=4.4735
C288	s#5	avC10#5	2.56818e-18	$X=-1.419 $Y=3.8665
C289	s#53	avC7#27	3.57576e-17	$X=4.1195 $Y=1.23
C290	avC7#27	avC10#32	2.0855e-17	$X=3.939 $Y=2.524
C291	avC9#34	out#1	2.40047e-17	$X=5.316 $Y=1.825
C292	avC11#30	avC8#21	1.82913e-16	$X=3.88 $Y=5.062
C293	avC8#27	vdd#4	1.57858e-17	$X=4.0145 $Y=4.0455
C294	out#1	avC7#27	3.09596e-18	$X=5.139 $Y=1.9065
C295	avC10#37	avC7#27	4.71245e-18	$X=2.6385 $Y=2.517
C296	out#5	avC9#13	2.2797e-18	$X=5.316 $Y=0.625
C297	out#1	avC9#37	1.58066e-16	$X=6.758 $Y=1.7555
C298	avC9#13	s#53	4.03626e-17	$X=4.1425 $Y=1.022
C299	avC7#5	vdd#4	5.55972e-18	$X=1.5015 $Y=2.115
C300	avC7#23	s#52	6.41125e-17	$X=3.8035 $Y=0.6705
C301	avC11#28	avC8	9.3725e-18	$X=0.678 $Y=5.021
C302	s#18	vdd#4	1.36067e-16	$X=-0.657 $Y=4.0565
C303	avC9#33	s#52	8.39764e-18	$X=5.1125 $Y=1.247
C304	avC7#23	s#53	1.49457e-16	$X=4.0885 $Y=1.0515
C305	avC10#32	avC8#27	5.6463e-18	$X=3.939 $Y=2.84
C306	s#5	avC11	1.10484e-16	$X=-1.438 $Y=4.335
C307	out#5	avC9#37	1.38005e-16	$X=6.757 $Y=0.782
C308	avC11	vdd#4	3.28727e-17	$X=0.416 $Y=4.273
C309	avC11#28	gnd#39	6.55511e-18	$X=0.603 $Y=5.013
C310	avC11#30	in2#2	3.297e-18	$X=3.562 $Y=5.014
C311	out#5	avC7#23	8.09854e-18	$X=5.2245 $Y=0.6975
C312	avC10#29	avC7	2.83484e-18	$X=0.316 $Y=2.3415
C313	avC10#5	s#3	1.12254e-17	$X=-1.4115 $Y=1.3095
C314	avC7#27	avC9#38	3.19522e-17	$X=3.939 $Y=1.8255
C315	gnd#3	avC10	3.10841e-17	$X=-2.6615 $Y=1.325
C316	out#1	vdd#4	1.33953e-17	$X=6.592 $Y=1.956
C317	avC10#37	avC8#27	2.02885e-18	$X=2.644 $Y=2.8635
C318	in1#2	gnd#38	1.34868e-16	$X=1.297 $Y=0.795
C319	avC8#21	avC11#29	6.51843e-17	$X=3.7845 $Y=5.4205
C320	s	vdd#4	2.19849e-18	$X=-1.6605 $Y=4.8475
C321	s#53	vdd#4	2.38473e-18	$X=4.1605 $Y=1.1345
C322	s#2	vdd#4	3.25308e-18	$X=-1.668 $Y=4.79
C323	s#4	vdd#4	3.96468e-18	$X=-1.67 $Y=1.1585
C324	avC11#27	vdd	1.93587e-18	$X=-0.4235 $Y=4.9675
C325	avC11#30	vdd#4	2.40559e-18	$X=3.9475 $Y=4.9375
C326	gnd#3	s#5	1.0853e-18	$X=-2.283 $Y=2.7235
C327	gnd#2	s#2	1.3242e-18	$X=-1.816 $Y=4.846
C328	s#2	gnd#42	2.07657e-18	$X=-1.683 $Y=4.8065
C329	gnd#39	s#9	2.10754e-18	$X=-0.186 $Y=5.5
C330	s#4	gnd#38	2.58879e-18	$X=-1.685 $Y=1.1545
C331	avC9#22	vdd	2.32628e-18	$X=3.639 $Y=2.1485
C332	avC9#34	gnd#38	2.7098e-18	$X=5.229 $Y=1.8245
C333	avC8#5	gnd#39	1.16577e-18	$X=1.2945 $Y=4.48
C334	avC7#17	in1#9	3.93673e-19	$X=2.275 $Y=1.7295
C335	avC10#29	s#36	7.65682e-19	$X=-0.0025 $Y=2.5655
C336	avC10#32	s#53	1.50498e-18	$X=4.045 $Y=1.8585
C337	s#5	avC10#28	1.65378e-18	$X=-0.505 $Y=2.775
C338	avC9#35	s#45	1.63845e-18	$X=4.94 $Y=3.764
C339	avC9#34	s#53	2.08249e-18	$X=4.874 $Y=1.589
C340	s#56	avC9#22	2.2638e-18	$X=3.562 $Y=1.932
C341	s#46	avC9#5	2.3607e-18	$X=3.946 $Y=4.5005
C342	s#56	avC9#21	2.4122e-18	$X=4.032 $Y=1.9325
C343	avC9#35	s#46	3.48417e-18	$X=4.3315 $Y=4.2925
C344	avC8#26	s#45	1.46067e-18	$X=2.747 $Y=4.3565
C345	out#29	avC9#37	7.65831e-19	$X=8.0605 $Y=1.2345
C346	avC7	s#53	1.20256e-18	$X=3.7525 $Y=1.0485
C347	avC11#28	avC8#5	1.53742e-18	$X=0.671 $Y=4.83
C348	avC10#32	avC9#38	1.75294e-18	$X=3.9395 $Y=2.375
C349	avC10#37	avC7	8.7626e-19	$X=2.2505 $Y=2.299
C350	avC10#37	avC7#23	9.44292e-19	$X=2.591 $Y=2.33
C351	avC9	avC8	1.21916e-18	$X=2.725 $Y=5.472
C352	avC7#23	avC9#37	8.60204e-19	$X=4.062 $Y=0.7525
C353	avC9#35	avC7#27	9.92788e-19	$X=4.928 $Y=3.4575
C354	avC9#5	avC7#27	1.24093e-18	$X=3.9695 $Y=3.2915
C355	avC7#23	avC9#38	1.24889e-18	$X=3.8715 $Y=1.4635
C356	avC7#17	avC9#38	1.7779e-18	$X=2.6 $Y=1.7205
C357	avC7#27	avC9#37	1.79213e-18	$X=4.256 $Y=1.882
C358	vdd	gnd	7.82037e-18	$X=2.117 $Y=1.072
C359	in1	gnd	6.26503e-18	$X=1.207 $Y=1.32
C360	in2	gnd	2.37129e-18	$X=1.207 $Y=4.747
C361	s	gnd	1.17357e-18	$X=-1.671 $Y=4.8385
C362	out	gnd	1.47105e-17	$X=8.0515 $Y=1.2325
C363	s#9	gnd	4.54307e-18	$X=-1.0985 $Y=4.8475
C364	in1#2	gnd	1.31065e-16	$X=1.3855 $Y=0.762
C365	in2#2	gnd	4.29191e-18	$X=1.384 $Y=4.8445
C366	avC10#9	gnd	2.5158e-18	$X=-2.358 $Y=1.571
C367	s#6	gnd	1.73568e-17	$X=-1.342 $Y=1.4205
C368	s#5	gnd	1.10579e-17	$X=-1.3455 $Y=4.2165
C369	avC11#27	gnd	1.92641e-18	$X=-0.4185 $Y=4.958
C370	avC10#28	gnd	1.16175e-18	$X=-0.4035 $Y=2.614
C371	avC7#17	gnd	1.10974e-18	$X=2.344 $Y=1.7035
C372	avC8#26	gnd	1.59216e-18	$X=2.6595 $Y=4.3455
C373	avC8#25	gnd	6.98646e-19	$X=2.645 $Y=5.176
C374	avC11#31	gnd	2.51515e-18	$X=3.9155 $Y=4.9325
C375	avC10#32	gnd	2.21901e-18	$X=3.9185 $Y=2.593
C376	avC9#34	gnd	5.09601e-18	$X=5.211 $Y=1.8165
C377	avC9#35	gnd	4.84627e-19	$X=5.054 $Y=3.662
C378	avC9#36	gnd	7.33294e-19	$X=5.2135 $Y=5.4275
C379	out#30	gnd	2.13731e-18	$X=7.5805 $Y=1.236
C380	s#3	gnd	1.12629e-16	$X=-1.14 $Y=0.7225
C381	avC11#29	gnd	1.4094e-19	$X=3.7775 $Y=4.99
C382	avC10#31	gnd	1.41543e-18	$X=3.814 $Y=2.079
C383	s#52	gnd	6.18562e-17	$X=3.7835 $Y=0.646
C384	avC9#37	gnd	1.42319e-16	$X=5.083 $Y=0.999
C385	avC10#29	gnd	1.1964e-17	$X=0.1325 $Y=2.5955
C386	avC11#32	gnd	1.14584e-18	$X=3.904 $Y=4.902
C387	avC10#37	gnd	6.20038e-19	$X=2.393 $Y=2.5925
C388	s#55	gnd	1.48574e-18	$X=3.0765 $Y=4.511
C389	s#56	gnd	2.11762e-17	$X=3.231 $Y=1.0965
C390	s#4	gnd	7.43684e-18	$X=-1.6765 $Y=1.153
C391	s#2	gnd	1.35484e-18	$X=-1.6755 $Y=4.7835
C392	avC8	gnd	2.07859e-18	$X=1.5915 $Y=5.1075
C393	avC8#21	gnd	1.91331e-19	$X=3.612 $Y=5.1225
C394	avC11#30	gnd	1.03117e-19	$X=3.902 $Y=4.8965
C395	s#46	gnd	2.81039e-18	$X=3.9285 $Y=4.5735
C396	avC9#22	gnd	6.06072e-19	$X=3.635 $Y=2.138
C397	s#53	gnd	1.12143e-17	$X=4.126 $Y=1.102
C398	avC9#13	gnd	1.36413e-16	$X=3.9895 $Y=0.5485
C399	avC9#21	gnd	2.81575e-18	$X=4.2245 $Y=2.138
C400	avC9#33	gnd	1.99408e-17	$X=5.19 $Y=1.2915
C401	out#29	gnd	5.62973e-18	$X=8.054 $Y=1.233
C402	vdd#4	gnd	4.68233e-18	$X=3.666 $Y=1.8275
C403	avC10#5	gnd	9.27532e-18	$X=-0.9955 $Y=1.8095
C404	avC7#5	gnd	2.18078e-18	$X=1.365 $Y=1.9905
C405	avC8#5	gnd	3.29143e-20	$X=1.3655 $Y=3.8445
C406	avC8#27	gnd	9.86812e-19	$X=3.8245 $Y=3.872
C407	avC9#5	gnd	1.54949e-18	$X=3.924 $Y=3.8145
C408	out#1	gnd	5.97813e-18	$X=6.343 $Y=1.7145
C409	avC10	gnd	2.58906e-16	$X=-1.3395 $Y=0.671
C410	avC11	gnd	2.55326e-18	$X=-0.41 $Y=3.5525
C411	avC7	gnd	2.08697e-16	$X=1.588 $Y=0.6965
C412	avC7#23	gnd	4.7439e-17	$X=3.5935 $Y=0.6695
C413	avC9	gnd	1.58952e-18	$X=4.004 $Y=5.197
C414	out#5	gnd	2.60098e-16	$X=6.4225 $Y=0.7
C415	s#18	gnd	2.5638e-20	$X=-1.025 $Y=3.7385
C416	s#36	gnd	2.66184e-17	$X=-0.9715 $Y=1.6355
C417	in2#8	gnd	1.15292e-17	$X=1.4125 $Y=3.8355
C418	in1#9	gnd	1.90487e-17	$X=1.4135 $Y=1.87
C419	avC9#38	gnd	2.49956e-18	$X=3.8885 $Y=1.732
*
*
.ENDS Final_MUX_1
*
