*
*
*
*                       LINUX           Tue May 11 14:39:19 2021
*
*
*
*  PROGRAM  advgen
*
*  Name           : advgen - Quantus - (64-bit)
*  Version        : 20.1.2-p025
*  Build Date     : Thu Sep 3 13:54:09 PDT 2020
*
*  HSPICE LIBRARY
*
*!LENGTH_UNITS METERS
*
*
*

*
.SUBCKT xor_regular vdd! gnd! A B Y
*
*
*  caps2d version: 10
*
*
*       TRANSISTOR CARDS
*
*
MavD1_1	avC7#6	A#2	gnd!#7	gnd!#10	nmos1v#20ivpcell#20gpdk090
+ L=1e-07	W=2.4e-07
+ AD=3.84e-14	AS=6.72e-14	PD=5.6e-07	PS=1.04e-06
+ simW=2.4e-07 fw=2.4e-07
MavD1_2	Y#1	B#4	avC7#6	gnd!#10	nmos1v#20ivpcell#20gpdk090
+ L=1e-07	W=2.4e-07
+ AD=6.72e-14	AS=3.84e-14	PD=1.04e-06	PS=5.6e-07
+ simW=2.4e-07 fw=2.4e-07
MavD1_3	avC6	B#2	gnd!#4	gnd!#10	nmos1v#20ivpcell#20gpdk090
+ L=1e-07	W=4.8e-07
+ AD=1.344e-13	AS=1.344e-13	PD=1.52e-06	PS=1.52e-06
+ simW=4.8e-07 fw=4.8e-07
MavD1_4	avC8	avC6#10	Y#9	gnd!#10
+ nmos1v#20ivpcell#20gpdk090	L=1e-07	W=3.6e-07
+ AD=2.16e-14	AS=1.008e-13	PD=4.8e-07	PS=1.28e-06	simW=3.6e-07 fw=3.6e-07
MavD1_5	gnd!#1	avC7#14	avC8	gnd!#10
+ nmos1v#20ivpcell#20gpdk090	L=1e-07	W=3.6e-07
+ AD=1.008e-13	AS=2.16e-14	PD=1.28e-06	PS=4.8e-07	simW=3.6e-07 fw=3.6e-07
MavD7_1	avC7#3	A#4	vdd!#5	vdd!#1	pmos1v#20ivpcell#20gpdk090	L=1e-07
+ W=2.4e-07
+ AD=6.72e-14	AS=6.72e-14	PD=1.04e-06	PS=1.04e-06
+ simW=2.4e-07 fw=2.4e-07
MavD7_2	avC6#5	B#5	vdd!#2	vdd!#1	pmos1v#20ivpcell#20gpdk090	L=1e-07
+ W=9e-07
+ AD=1.44e-13	AS=2.52e-13	PD=1.22e-06	PS=2.36e-06
+ simW=9e-07 fw=9e-07
MavD7_3	Y#6	avC7#13	avC6#5	vdd!#1	pmos1v#20ivpcell#20gpdk090
+ L=1e-07	W=9e-07
+ AD=2.52e-13	AS=1.44e-13	PD=2.36e-06	PS=1.22e-06
+ simW=9e-07 fw=9e-07
MavD7_4	Y#14	avC6#9	avC7#16	vdd!#1	pmos1v#20ivpcell#20gpdk090
+ L=1e-07	W=2.4e-07
+ AD=6.72e-14	AS=6.72e-14	PD=1.04e-06	PS=1.04e-06
+ simW=2.4e-07 fw=2.4e-07
*
*
*       RESISTOR AND CAP/DIODE CARDS
*
Rg1	avC7#10	avC7#9	    0.5329	$mt3	$X=1.2 $Y=1.41
Rh1	avC7#8	avC7#9	    1.4000	$mt2	$X=1.2 $Y=0.78
Rh2	avC7#10	avC7#2	    3.0072	$mt2	$X=0.95 $Y=2.04
Rh3	Y#11	Y#3	    1.7650	$mt2	$X=2.3355 $Y=0.78
Rh4	Y#13	Y#12	    1.5788	$mt2	$X=3.158 $Y=1.92
Rh5	Y#12	Y#4	    1.5863	$mt2	$X=2.428 $Y=1.92
Ri3	avC7	avC7#2	   10.2625	$mt1	$X=0.7 $Y=2.308
Ri4	avC7#2	avC7#4	2.500e-02	$mt1	$X=0.695 $Y=2.02
Ri6	avC7#3	avC7#4	   15.0000	$mt1	$X=0.68 $Y=1.99
Ri7	avC7#6	avC7#7	   15.0000	$mt1	$X=1.2 $Y=0.78
Ri8	avC7#7	avC7#8	    1.4000	$mt1	$X=1.2 $Y=0.78
Ri9	B	B#1	   10.6863	$mt1	$X=0.767 $Y=1.12
Ri10	Y#1	Y#2	   15.0000	$mt1	$X=1.62 $Y=0.78
Ri11	Y#2	Y#3	    1.4046	$mt1	$X=1.6075 $Y=0.78
Ri12	Y#4	Y#5	8.857e-02	$mt1	$X=2.0525 $Y=2.075
Ri14	Y#6	Y#5	    5.0000	$mt1	$X=2.04 $Y=2.075
Ri16	avC6#2	avC6#4	    0.5183	$mt1	$X=2.56 $Y=1.107
Ri17	avC6#4	avC6#6	    0.9750	$mt1	$X=2.03 $Y=1.375
Ri19	avC6#4	avC6#8	   10.5639	$mt1	$X=2.44 $Y=1.8225
Ri20	avC6	avC6#2	   15.0000	$mt1	$X=2.56 $Y=0.66
Ri21	avC6#5	avC6#6	    5.0000	$mt1	$X=1.62 $Y=2.075
Ri23	Y#8	Y#11	2.892e-03	$mt1	$X=3.0675 $Y=0.755
Ri24	Y#11	Y#12	    2.1735	$mt1	$X=2.9325 $Y=0.895
Ri25	Y#9	Y#8	   15.0000	$mt1	$X=3.08 $Y=0.72
Ri26	avC7#11	avC7#17	    0.4700	$mt1
+ $X=3.08 $Y=2.303
Ri28	avC7#17	avC7#15	    0.7347	$mt1
+ $X=3.08 $Y=1.388
Ri29	avC7#16	avC7#17	   15.0000	$mt1	$X=3.08 $Y=1.92
Ri30	Y	Y#13	2.308e-02	$mt1	$X=3.59 $Y=1.92
Ri31	Y#13	Y#14	   15.0046	$mt1	$X=3.5125 $Y=1.92
Ri32	vdd!#1	vdd!	   15.0765	$mt1	$X=3.68 $Y=2.74
Ri33	vdd!	vdd!#3	    0.5767	$mt1	$X=1.2 $Y=2.7025
Ri35	vdd!	vdd!#6	    0.6460	$mt1	$X=0.26 $Y=2.495
Ri37	vdd!#2	vdd!#3	    5.0000	$mt1	$X=1.2 $Y=2.075
Ri38	vdd!#5	vdd!#6	   15.0000	$mt1	$X=0.26 $Y=1.99
Ri40	gnd!#2	gnd!	    0.4260	$mt1	$X=3.72 $Y=0.3505
Ri41	gnd!	gnd!#5	    0.3733	$mt1	$X=2.14 $Y=0.29
Ri43	gnd!	gnd!#8	    0.4533	$mt1	$X=0.78 $Y=0.41
Ri45	gnd!	gnd!#10	   15.0534	$mt1	$X=1.99 $Y=0.08
Ri46	gnd!#1	gnd!#2	   15.0000	$mt1	$X=3.72 $Y=0.72
Ri47	gnd!#4	gnd!#5	   15.0000	$mt1	$X=2.14 $Y=0.66
Ri48	gnd!#7	gnd!#8	   15.0000	$mt1	$X=0.78 $Y=0.78
Rj1	A#2	A#3	   98.4119	$poly	$X=0.99 $Y=1.337
Rj2	A#3	A	   16.3706	$poly	$X=0.4075 $Y=1.455
Rj3	A#3	A#4	   34.0931	$poly	$X=0.47 $Y=1.7125
Rj4	B#2	B#3	  122.4997	$poly	$X=2.0255 $Y=1.24
Rj5	B#3	B#1	    2.9576	$poly	$X=1.41 $Y=1.235
Rj6	B#3	B#4	   32.0044	$poly	$X=1.41 $Y=1.0175
Rj7	B#3	B#5	   37.5044	$poly	$X=1.41 $Y=1.48
Rj8	avC7#11	avC7#12	   94.6387	$poly
+ $X=2.43 $Y=2.8475
Rj9	avC7#12	avC7	  117.4077	$poly	$X=1.3 $Y=2.875
Rj10	avC7#12	avC7#13	   26.4473	$poly
+ $X=1.83 $Y=2.6475
Rj11	avC6#9	avC6#8	   96.1308	$poly	$X=2.9805 $Y=2.27
Rj12	avC6#9	avC6#10	   90.0000	$poly	$X=3.29 $Y=1.3505
Rj13	avC7#14	avC7#15	   36.6026	$poly
+ $X=3.51 $Y=1.017
*
*       CAPACITOR CARDS
*
*
C1	avC7#15	gnd!#10	1.89878e-17	$X=3.404 $Y=1.205
C2	Y	vdd!	1.19366e-17	$X=3.3605 $Y=2.0945
C3	vdd!	A#4	5.04985e-18	$X=0.605 $Y=2.0675
C4	vdd!	B#5	5.02983e-18	$X=1.547 $Y=2.2115
C5	vdd!	avC6#9	5.28133e-18	$X=3.1675 $Y=1.99
C6	avC7#10	vdd!	3.98192e-18	$X=1.413 $Y=2.099
C7	vdd!	avC7	5.71104e-17	$X=1.084 $Y=2.6725
C8	avC6#8	vdd!	1.18739e-17	$X=2.571 $Y=2.3195
C9	vdd!	avC7#11	5.12959e-17	$X=2.7875 $Y=2.7495
C10	avC7#2	vdd!	5.74759e-18	$X=0.9405 $Y=2.1895
C11	avC7#15	vdd!#1	2.65295e-17	$X=3.388 $Y=1.2355
C12	Y#4	vdd!	1.46045e-17	$X=2.1785 $Y=2.2235
C13	Y#12	vdd!	1.07262e-17	$X=2.7015 $Y=2.1055
C14	Y#13	vdd!	7.47852e-18	$X=3.2695 $Y=2.0565
C15	vdd!	avC6#5	4.40141e-18	$X=1.835 $Y=2.316
C16	vdd!	Y#6	1.21294e-18	$X=2.1155 $Y=2.293
C17	Y	avC6#9	7.69923e-18	$X=3.4055 $Y=1.872
C18	avC7#2	vdd!#1	8.47125e-18	$X=0.7395 $Y=2.0705
C19	vdd!	avC7#12	4.41841e-17	$X=1.9355 $Y=2.8175
C20	avC6#8	avC7#12	5.68885e-18	$X=2.2335 $Y=2.4735
C21	avC7#12	vdd!#1	6.88721e-17	$X=1.854 $Y=2.776
C22	A#4	B#5	1.9881e-18	$X=0.7705 $Y=2.0295
C23	Y#3	gnd!#10	1.75983e-17	$X=1.7575 $Y=0.7795
C24	B	avC7#2	6.95929e-18	$X=0.5525 $Y=1.46
C25	B#5	avC7#13	1.5036e-17	$X=1.621 $Y=2.0685
C26	avC7#15	Y	1.58984e-17	$X=3.4805 $Y=1.5695
C27	B	gnd!#10	2.79096e-17	$X=0.47 $Y=1.1195
C28	Y#4	vdd!#1	4.27545e-18	$X=2.131 $Y=2.0125
C29	Y	vdd!#1	2.632e-17	$X=3.534 $Y=1.9315
C30	A#2	B#4	1.03575e-17	$X=1.2475 $Y=0.8095
C31	avC7#10	B#5	6.02985e-19	$X=1.3195 $Y=2.016
C32	Y#12	vdd!#1	1.60281e-17	$X=2.801 $Y=1.8325
C33	Y#11	gnd!#10	2.04863e-17	$X=2.848 $Y=0.8375
C34	avC7	B#5	6.00117e-18	$X=1.1565 $Y=2.272
C35	avC7#10	avC6#9	1.26084e-18	$X=2.396 $Y=1.8685
C36	Y#11	vdd!#1	1.67908e-18	$X=2.8435 $Y=0.9185
C37	avC7#2	A#4	1.08945e-17	$X=0.5415 $Y=2.02
C38	avC7#9	A#2	6.42436e-19	$X=1.0815 $Y=0.961
C39	B#2	avC6#10	4.06367e-18	$X=2.887 $Y=0.8155
C40	B#1	avC7#13	9.71616e-18	$X=1.6725 $Y=1.7485
C41	Y#3	avC6#5	5.61877e-18	$X=1.6895 $Y=1.415
C42	avC7#13	avC6#8	6.2299e-18	$X=2.164 $Y=2.1065
C43	avC6#4	B#2	1.86096e-17	$X=2.391 $Y=1.1365
C44	avC7#2	B#5	1.35462e-18	$X=1.059 $Y=2.0775
C45	Y#13	vdd!#1	1.11008e-17	$X=3.389 $Y=1.9285
C46	avC6#10	avC7#14	3.84187e-17	$X=3.4215 $Y=0.754
C47	B#1	A#2	3.17878e-17	$X=1.093 $Y=0.981
C48	avC7#11	avC6#9	1.55823e-17	$X=3.15 $Y=2.1385
C49	Y#4	B#5	2.04691e-18	$X=1.6475 $Y=2.0595
C50	avC7#15	avC6#9	1.11366e-18	$X=3.339 $Y=1.563
C51	A#4	vdd!#1	2.49645e-17	$X=0.49 $Y=2.004
C52	Y#4	avC7#13	1.61543e-17	$X=1.923 $Y=2.029
C53	B#5	vdd!#1	1.46853e-17	$X=1.435 $Y=2.098
C54	B#2	avC6#8	7.80187e-19	$X=2.4655 $Y=1.413
C55	avC7#8	A#2	9.87508e-18	$X=1.0655 $Y=0.8615
C56	Y#12	avC6#9	2.65471e-18	$X=3.1365 $Y=1.826
C57	Y#3	avC6#4	4.06272e-18	$X=2.197 $Y=1.287
C58	avC7#13	vdd!#1	1.63132e-17	$X=1.8465 $Y=2.0525
C59	avC7#15	B#2	7.62929e-19	$X=2.8235 $Y=0.9625
C60	avC7#8	B#4	7.27415e-18	$X=1.3555 $Y=0.756
C61	Y#13	avC6#9	2.00995e-18	$X=3.3465 $Y=1.878
C62	Y#3	B#4	7.12706e-18	$X=1.4655 $Y=0.753
C63	avC7#9	B#1	4.14609e-18	$X=1.255 $Y=1.0775
C64	avC7#15	avC6#10	3.14463e-17	$X=3.333 $Y=0.987
C65	avC7#8	B#2	8.93703e-19	$X=1.817 $Y=0.771
C66	avC6#9	vdd!#1	6.22094e-17	$X=3.279 $Y=1.846
C67	avC7#10	B#1	4.32136e-18	$X=1.2715 $Y=1.608
C68	Y#3	B#2	3.26364e-18	$X=2.1585 $Y=0.769
C69	A#2	gnd!#10	2.5961e-17	$X=0.9895 $Y=0.9075
C70	Y#4	B#2	1.13124e-18	$X=2.2625 $Y=1.2065
C71	Y#3	gnd!#4	9.35485e-19	$X=2.0285 $Y=0.6985
C72	A#2	vdd!#1	6.79496e-18	$X=1.013 $Y=0.928
C73	Y#4	avC6#4	2.65639e-17	$X=2.3085 $Y=1.736
C74	Y#13	avC7#16	1.34741e-18	$X=3.2095 $Y=1.9195
C75	B#4	gnd!#10	1.21826e-17	$X=1.409 $Y=0.748
C76	Y#11	B#2	4.52005e-18	$X=2.489 $Y=0.7845
C77	B#2	gnd!#10	3.51796e-17	$X=2.349 $Y=0.7645
C78	Y#11	avC6#10	1.34559e-17	$X=3.1895 $Y=0.8505
C79	avC7#9	Y#3	1.04234e-17	$X=1.3565 $Y=0.959
C80	B#2	vdd!#1	1.28903e-17	$X=2.3575 $Y=0.7985
C81	Y#12	avC6#4	3.51e-17	$X=2.572 $Y=1.6545
C82	Y#11	avC7#14	4.30232e-18	$X=3.402 $Y=0.7115
C83	avC6#10	gnd!#10	1.76598e-17	$X=3.289 $Y=0.8545
C84	Y#4	avC7#12	4.80029e-18	$X=1.9465 $Y=2.453
C85	avC6#10	vdd!#1	5.00297e-18	$X=3.281 $Y=0.879
C86	avC7#10	Y#4	1.53749e-17	$X=1.572 $Y=1.948
C87	avC6#8	avC7#11	1.66781e-17	$X=2.726 $Y=2.3955
C88	avC7#14	gnd!#10	2.10906e-17	$X=3.509 $Y=0.6875
C89	B#1	avC7#2	3.98495e-18	$X=0.937 $Y=1.7515
C90	avC6#4	Y#11	2.26778e-17	$X=2.5665 $Y=1.34
C91	avC7#9	gnd!#10	1.32156e-17	$X=1.1995 $Y=1.0295
C92	avC7#8	B#1	3.68705e-17	$X=1.2695 $Y=0.939
C93	Y#11	avC6	1.61506e-18	$X=2.627 $Y=0.7095
C94	avC7#9	vdd!#1	3.24924e-18	$X=1.226 $Y=1.053
C95	Y#3	B#1	8.08885e-18	$X=1.547 $Y=0.998
C96	Y#4	B#1	8.88761e-19	$X=1.735 $Y=1.583
C97	avC7#10	vdd!#1	1.81809e-17	$X=1.239 $Y=1.9275
C98	Y#4	avC6#8	3.87264e-17	$X=2.405 $Y=2.111
C99	Y#12	avC6#8	2.66696e-17	$X=2.678 $Y=2.046
C100	Y#4	avC7#11	3.74526e-18	$X=2.5145 $Y=2.3535
C101	avC7#10	vdd!#2	5.51634e-18	$X=1.207 $Y=1.9775
C102	avC7	vdd!#1	6.09471e-17	$X=0.7775 $Y=2.586
C103	Y#12	avC7#11	2.95967e-18	$X=2.8545 $Y=2.2885
C104	B#1	gnd!#10	2.44774e-17	$X=1.372 $Y=1.1795
C105	avC6#4	gnd!#10	1.21611e-18	$X=2.439 $Y=1.5675
C106	B#1	vdd!#1	3.35128e-17	$X=1.4215 $Y=1.2235
C107	Y#12	avC7#15	3.39521e-18	$X=3.1775 $Y=1.432
C108	B#5	avC7#12	1.29321e-17	$X=1.584 $Y=2.38
C109	avC7#8	Y#3	5.31798e-17	$X=1.399 $Y=0.7795
C110	B#1	avC6#4	4.46183e-18	$X=2.013 $Y=1.4125
C111	Y#11	avC7#15	2.88619e-17	$X=3.2245 $Y=1.086
C112	avC6#8	vdd!#1	4.04295e-17	$X=2.608 $Y=2.193
C113	avC6#4	avC7#13	2.12518e-18	$X=2.0975 $Y=1.835
C114	Y#13	avC7#15	8.61208e-18	$X=3.402 $Y=1.62
C115	avC6#4	vdd!#1	1.83035e-17	$X=2.447 $Y=1.588
C116	avC7#11	vdd!#1	7.09505e-17	$X=2.8925 $Y=2.68
C117	gnd!#5	B#2	1.71249e-17	$X=2.214 $Y=0.655
C118	avC7#17	vdd!#1	1.61504e-17	$X=3.0735 $Y=1.855
C119	gnd!#8	A	1.10074e-18	$X=0.721 $Y=0.8235
C120	avC7#8	gnd!#5	2.34959e-18	$X=1.836 $Y=0.654
C121	gnd!#8	Y#3	7.65365e-19	$X=0.95 $Y=0.676
C122	Y#11	avC6#2	5.00475e-17	$X=2.6155 $Y=0.777
C123	avC6#6	avC7#13	2.23633e-17	$X=1.744 $Y=1.994
C124	vdd!#6	avC7	1.067e-17	$X=0.375 $Y=2.287
C125	Y#3	avC6#2	1.22665e-18	$X=2.376 $Y=0.766
C126	gnd!#5	avC6#2	1.83504e-17	$X=2.337 $Y=0.6735
C127	avC6#8	avC7#17	6.01427e-18	$X=2.8845 $Y=1.985
C128	Y#12	avC7#17	6.84295e-17	$X=2.999 $Y=1.834
C129	B	A	4.22341e-17	$X=0.4805 $Y=1.1975
C130	B#1	avC6#2	1.60124e-18	$X=2.247 $Y=0.872
C131	vdd!#3	A#4	3.24124e-18	$X=0.6945 $Y=2.0505
C132	A	vdd!#1	7.84062e-17	$X=0.5845 $Y=1.462
C133	gnd!#5	B#4	2.90894e-18	$X=1.7185 $Y=0.683
C134	avC7#8	vdd!#3	1.26631e-18	$X=1.2005 $Y=1.529
C135	avC7#17	Y	1.35844e-17	$X=3.2755 $Y=1.8755
C136	avC7#17	avC6#9	2.5257e-17	$X=3.1785 $Y=1.84
C137	gnd!#8	avC7#8	2.22228e-17	$X=0.8965 $Y=0.689
C138	gnd!#2	avC7#15	1.09511e-17	$X=3.628 $Y=0.7925
C139	vdd!#6	A#4	1.12505e-17	$X=0.378 $Y=2.079
C140	avC6#6	vdd!	8.16688e-18	$X=1.7665 $Y=2.1135
C141	avC6#6	Y#4	4.07715e-17	$X=1.8275 $Y=1.9525
C142	gnd!#2	avC7#14	1.28197e-17	$X=3.614 $Y=0.656
C143	A	B#5	2.82406e-18	$X=1.079 $Y=1.848
C144	gnd!#8	B#4	1.96721e-18	$X=1.1085 $Y=0.703
C145	avC6#2	gnd!#10	1.49444e-18	$X=2.559 $Y=0.7625
C146	gnd!#2	Y	1.96752e-18	$X=3.67 $Y=1.01
C147	avC6#6	B#5	1.56295e-17	$X=1.4955 $Y=2.021
C148	avC7#9	gnd!#8	1.8951e-18	$X=0.9265 $Y=0.7855
C149	avC7#10	vdd!#3	1.39874e-17	$X=1.1995 $Y=2.0535
C150	avC7#8	avC6#2	2.06063e-18	$X=2.084 $Y=0.768
C151	avC6#2	gnd!#2	1.99205e-18	$X=3.204 $Y=0.686
C152	gnd!#8	B#1	1.09388e-17	$X=0.8995 $Y=0.761
C153	gnd!#5	A#2	4.19035e-19	$X=1.6095 $Y=0.7385
C154	avC7#9	avC6#2	2.1463e-18	$X=1.974 $Y=0.877
C155	avC7#2	gnd!#8	1.60567e-18	$X=0.754 $Y=1.103
C156	avC7#2	vdd!#3	1.61104e-17	$X=0.946 $Y=2.1125
C157	Y#4	gnd!#5	1.33032e-18	$X=2.1315 $Y=0.926
C158	avC6#2	B#2	1.39044e-17	$X=2.4785 $Y=0.763
C159	avC7#10	avC6#6	6.79313e-18	$X=1.4025 $Y=1.9165
C160	avC6#6	avC7#12	2.84208e-18	$X=1.7255 $Y=2.357
C161	B#1	avC6#6	2.18155e-17	$X=1.5125 $Y=1.599
C162	gnd!#2	avC6#10	4.25947e-18	$X=3.5475 $Y=0.7165
C163	vdd!#3	avC6#6	3.51035e-17	$X=1.377 $Y=2.0595
C164	gnd!#8	A#2	9.77184e-18	$X=0.8645 $Y=0.757
C165	B#1	vdd!#3	1.03612e-17	$X=1.2615 $Y=1.8095
C166	Y#3	avC6#6	1.64306e-17	$X=1.673 $Y=1.4775
C167	vdd!#3	avC7#13	3.49872e-18	$X=1.5255 $Y=2.102
C168	avC7#9	A	1.06726e-18	$X=0.9645 $Y=1.166
C169	avC7#10	A	3.50767e-18	$X=0.8975 $Y=1.7015
C170	Y#4	vdd!#3	1.41031e-18	$X=1.5205 $Y=2.104
C171	avC6#6	vdd!#1	8.60477e-18	$X=1.65 $Y=1.933
C172	Y#11	gnd!#2	1.27808e-17	$X=3.578 $Y=0.659
C173	gnd!#5	avC6#10	7.75982e-19	$X=2.628 $Y=0.705
C174	A	avC7	1.27863e-18	$X=0.609 $Y=2.0015
C175	gnd!#8	B	8.85689e-18	$X=0.639 $Y=0.865
C176	vdd!#6	avC7#2	2.04417e-17	$X=0.4235 $Y=2.1375
C177	Y#3	gnd!#5	2.70114e-17	$X=2.0595 $Y=0.633
C178	A	B#1	1.3481e-17	$X=0.922 $Y=1.31
C179	vdd!#3	A	1.47258e-18	$X=0.9375 $Y=1.8835
C180	avC6#2	B#4	7.52671e-19	$X=1.8635 $Y=0.7535
C181	gnd!#5	avC6#4	4.26978e-18	$X=2.236 $Y=0.9085
C182	A	vdd!#6	1.35762e-17	$X=0.3255 $Y=1.984
C183	avC7	vdd!#3	1.83269e-17	$X=1.016 $Y=2.323
C184	vdd!#3	B#5	1.71069e-17	$X=1.307 $Y=2.1265
C185	avC7#2	A	5.28486e-18	$X=0.629 $Y=1.826
C186	avC7#10	avC6#4	2.41724e-19	$X=1.841 $Y=1.7345
C187	avC6#2	avC7#14	3.55895e-19	$X=3.088 $Y=0.7205
C188	avC7#9	avC6#10	3.70372e-19	$X=2.2945 $Y=0.9375
C189	avC7#10	avC6#8	5.68558e-19	$X=1.9155 $Y=2.0535
C190	avC7#9	avC6#6	6.45651e-19	$X=1.36 $Y=1.37
C191	avC7#10	vdd!#6	1.07616e-18	$X=0.5535 $Y=2.098
C192	avC7#8	gnd!#10	3.04766e-19	$X=1.202 $Y=0.7795
C193	Y#4	avC7#2	4.24775e-19	$X=1.1885 $Y=2.04
C194	avC7#9	Y#11	5.38459e-19	$X=1.6 $Y=0.9825
C195	avC7#10	Y#12	7.04119e-19	$X=1.81 $Y=1.8735
C196	Y#12	avC7#13	7.26003e-19	$X=2.131 $Y=1.9715
C197	Y#11	avC6#8	7.51558e-19	$X=2.6815 $Y=1.7585
C198	A	gnd!	7.35489e-18	$X=0.7185 $Y=1.1345
C199	B	gnd!	1.09189e-17	$X=0.555 $Y=1.0295
C200	avC8	gnd!	5.3459e-21	$X=3.294 $Y=0.6845
C201	A#4	gnd!	4.72408e-19	$X=0.54 $Y=1.8635
C202	B#5	gnd!	8.06948e-19	$X=1.416 $Y=1.81
C203	avC6#9	gnd!	8.33547e-19	$X=3.0325 $Y=1.5885
C204	A#2	gnd!	7.19764e-18	$X=1.0375 $Y=0.8225
C205	B#4	gnd!	7.55839e-18	$X=1.4125 $Y=0.703
C206	B#2	gnd!	1.32502e-17	$X=2.216 $Y=0.662
C207	avC6#10	gnd!	7.98955e-18	$X=3.0765 $Y=0.764
C208	avC7#14	gnd!	7.50294e-18	$X=3.345 $Y=0.6385
C209	avC7#9	gnd!	3.73903e-18	$X=1.232 $Y=0.909
C210	avC7#10	gnd!	1.32349e-19	$X=1.246 $Y=1.585
C211	avC7	gnd!	1.95712e-19	$X=0.877 $Y=2.0295
C212	B#1	gnd!	5.97458e-18	$X=1.3925 $Y=0.9215
C213	avC7#11	gnd!	2.23674e-19	$X=2.5695 $Y=2.094
C214	avC7#15	gnd!	5.78871e-18	$X=3.06 $Y=1.0055
C215	avC7#8	gnd!	1.38275e-17	$X=1.245 $Y=0.661
C216	Y#3	gnd!	2.31691e-17	$X=1.6775 $Y=0.5905
C217	Y#4	gnd!	6.33092e-19	$X=1.9525 $Y=1.5385
C218	Y#12	gnd!	4.93185e-19	$X=2.451 $Y=1.354
C219	Y#11	gnd!	2.52705e-17	$X=2.4165 $Y=0.6015
C220	Y#13	gnd!	2.23674e-19	$X=3.14 $Y=1.672
C221	avC7#16	gnd!	4.13752e-19	$X=2.965 $Y=1.7685
C222	avC6	gnd!	1.17619e-19	$X=2.3755 $Y=0.5715
C223	avC6#2	gnd!	1.14871e-17	$X=2.451 $Y=0.695
C224	avC6#4	gnd!	1.66292e-18	$X=2.2735 $Y=1.3155
C225	avC6#6	gnd!	5.35137e-18	$X=1.589 $Y=1.571
C226	avC7#12	gnd!	4.02021e-19	$X=1.7605 $Y=2.282
C227	vdd!#3	gnd!	4.02021e-19	$X=1.2375 $Y=1.8575
C228	vdd!#6	gnd!	5.11929e-19	$X=0.368 $Y=1.9915
*
*
.ENDS xor_regular
*
